
##############################################################################
#                                                                            #
# This CIF contains the data in a paper accepted for publication in          #
# Acta Crystallographica Section B. It conforms to the requirements of       #
# Notes for Authors for Acta Crystallographica Section B, and has been       #
# peer reviewed under the auspices of the IUCr Commission on Journals.       #
#                                                                            #
# Full details of the Crystallographic Information File format               #
# are given in the paper "The Crystallographic Information File (CIF):       #
# a New Standard Archive File for Crystallography" by S. R. Hall, F. H.      #
# Allen and I. D. Brown [Acta Cryst. (1991), A47, 655-685].                  #
#                                                                            #
# The current version of the core CIF dictionary is obtainable from          #
# ftp://ftp.iucr.org/pub/cif_core.dic.                                       #
#                                                                            #
# Software is freely available for graphical display of the structure(s)     #
# in this CIF. For information consult the CIF software page                 #
# http://www.iucr.org/resources/cif/software.                                #
#                                                                            #
# This file may be used for bona fide research purposes within the           #
# scientific community so long as proper attribution is given to the journal # 
# article from which it was obtained.                                        #
#                                                                            #
##############################################################################
data_global

_audit_update_record
;
2012-06-04 # Formatted by publCIF
;
#=======================================================================

_audit_creation_method                   'Jana2006 Version : 09/08/2011'


# 1. PROCESSING SUMMARY (IUCr Office Use Only)

_journal_date_recd_electronic     2012-12-07
_journal_date_to_coeditor                ?
_journal_date_from_coeditor       2013-01-30
_journal_date_accepted            2013-01-30
_journal_date_printers_first      2013-02-12
_journal_date_printers_final             ?
_journal_date_proofs_out          2013-02-12
_journal_date_proofs_in           2013-02-18
_journal_coeditor_name                   ?
_journal_coeditor_code            BP5048
_journal_paper_doi    10.1107/S0108768113003121
_journal_coeditor_notes
?
_journal_techeditor_code          B130312
_iucr_compatibility_tag          ACTA95
_journal_paper_category          FA
_journal_techeditor_notes
?
_journal_coden_ASTM               ASBSDK
_journal_coden_Cambridge          622
_journal_name_full                'Acta Crystallographica, Section B'
_journal_year                     2013
_journal_volume                   69
_journal_issue                    02
_journal_page_first               137
_journal_page_last                144
_journal_suppl_publ_number               ?
_journal_suppl_publ_pages                ?

#=======================================================================

# 2. SUBMISSION DETAILS

_publ_contact_author_name                'van Smaalen, Sander'
_publ_contact_author_address
;
Laboratory of Crystallography, 
University of Bayreuth, 95440 Bayreuth, 
Germany
;
_publ_contact_author_email               smash@uni-bayreuth.de
_publ_contact_author_fax                 +49-921-553770
_publ_contact_author_phone               +49-921-553886

_publ_requested_journal                  'Acta Crystallographica Section B'
_publ_requested_category                 ?

_publ_contact_letter
?

#=======================================================================

# 3. TITLE AND AUTHOR LIST

_publ_section_title
;
Anisotropic thermal expansion of
La$_n$(Ti,Fe)$_n$O$_{3n+2}$ ($n=5$ and $n=6$)
;

_publ_section_title_footnote
.
loop_
 _publ_author_name
 _publ_author_footnote
 _publ_author_address
'Wolfel, Alexander'
; ?      # footnote
;
; Laboratory of Crystallography, 
University of Bayreuth, 95440 Bayreuth, 
Germany       # address
;
'Dorscht, Philipp'
; ?      # footnote
;
; Laboratory of Crystallography, 
University of Bayreuth, 95440 Bayreuth, 
Germany       # address
;
'Lichtenberg, Frank'
; ?      # footnote
;
; Department of Materials, ETH Zurich, 
8093 Zurich, Switzerland   # address
;
'van Smaalen, Sander'    # name
; ?      # footnote
;
; Laboratory of Crystallography, 
University of Bayreuth, 95440 Bayreuth, 
Germany       # address
;



#=======================================================================

# 4. TEXT

_publ_section_synopsis
.
_publ_section_abstract
;
(type here to add abstract)
;

_publ_section_comment
;
(type here to add)
;

_publ_section_introduction
?
_publ_section_experimental
?
_publ_section_exptl_prep
;
(type here to add preparation details)
;

_publ_section_exptl_refinement
;
(type here to add refinement details)
;

_publ_section_exptl_solution
?
_publ_section_discussion
?
_publ_section_acknowledgements
;
?
;






_publ_section_references
;
Petricek, V., Dusek, M. & Palatinus, L. (2006). Jana2006. Structure
Determination Software Programs. Institute of Physics, Praha, Czech Republic.

Palatinus, L. & Chapuis, G. (2007). <i>J. Appl. Cryst.</i> <b>40</b>, 786--790.

# enable this reference if Diamond ver. 2 was used for visualization
#Brandenburg, K. (1999). <i>DIAMOND</i>. Version. 2.1c. #Crystal Impact GbR,
Bonn, Germany.

# enable this reference if Diamond ver. 3 was used for visualization
#Brandenburg, K. & Putz, H. (2005). <i>DIAMOND</i> Version 3. #Crystal Impact
GbR, Postfach 1251, D-53002 Bonn, Germany.

# enable this reference if <i>SIR97</i> was used for solving of the structure
#Altomare, A., Burla, M. C., Camalli, M., Cascarano, G., Giacovazzo, C.,
#Guagliardi, A., Moliterni, A. G. G., Polidori, G., Spagna, R. (1997).
#<i>SIR97</i>. A Package for Crystal Structure Solution by Direct Methods #and
Refinement, Bari, Rome, Italy.

# use this reference if <i>SIR2002</i> was used for solving of the structure
#Burla, M.C., Camalli, M., Carrozzini, B., Cascarano, G., Giacovazzo, C.,
#Polidori, G., Spagna, R. #<i>SIR2002</i>: the program, J. Appl. Cryst,
(2003). <i>36</i>, 1103.

# enable this reference if bond valences were calculated #Brown, I. D. (1996).
<i>J. Appl. Cryst.</i> <b>29</b>, 479--480.

# enable this reference if <i>X-SHAPE</i> wase used for crystal shape
refinement #Stoe & Cie (1998). <i>X-SHAPE</i>. Stoe & Cie, Darmstadt, Germany.

# enable this reference if Flack coefficient was refined #Flack, H. D. (1983).
<i>Acta Cryst.</i> A<b>39</b>, 876--881.
;
_publ_section_figure_captions
;

;

_publ_section_table_legends
?

#=======================================================================
data_n5_090K 
#=======================================================================

# 5. CHEMICAL DATA

_chemical_name_systematic
?
_chemical_name_common                    ?
_chemical_formula_moiety                 ?
_chemical_formula_structural             ?
_chemical_formula_analytical             ?
_chemical_formula_iupac                  ?
_chemical_formula_sum                    'Fe0.615 La3.333 O11.333 Ti2.718'
_chemical_formula_weight                 808.8
_chemical_melting_point                  ?
_chemical_compound_source                ?
_chemical_absolute_configuration         .

#=======================================================================

# 6. CRYSTAL DATA

_symmetry_cell_setting                   monoclinic
_space_group_ssg_name                    'X21/b(\a\b0)00'
loop_
 _space_group_symop_ssg_id
 _space_group_symop_ssg_operation_algebraic
 1   x1,x2,x3,x4
 2   -x1+1/4,-x2,x3+1/2,-x4+1/4
 3   -x1,-x2,-x3,-x4+1/2
 4   x1,x2+1/2,-x3+1/2,x4
 5   x1+1/2,x2,x3,x4+1/2
 6   -x1+3/4,-x2,x3+1/2,-x4+3/4
 7   -x1+1/2,-x2,-x3,-x4
 8   x1+1/2,x2+1/2,-x3+1/2,x4+1/2
 9   x1+3/4,x2+1/2,x3,x4+1/4
 10  -x1,-x2+1/2,x3+1/2,-x4+1/2
 11  -x1+3/4,-x2+1/2,-x3,-x4+3/4
 12  x1+3/4,x2,-x3+1/2,x4+1/4
 13  x1+1/4,x2+1/2,x3,x4+3/4
 14  -x1+1/2,-x2+1/2,x3+1/2,-x4
 15  -x1+1/4,-x2+1/2,-x3,-x4+1/4
 16  x1+1/4,x2,-x3+1/2,x4+3/4
_cell_length_a                           7.827(5)
_cell_length_b                           5.218(4)
_cell_length_c                           5.537(3)
_cell_angle_alpha                        90
_cell_angle_beta                         90
_cell_angle_gamma                        90.02(5)
_cell_volume                             226.1(3)

loop_
 _jana_cell_twin_matrix_id
 _jana_cell_twin_volume_fraction
 _jana_cell_twin_matrix_1_1
 _jana_cell_twin_matrix_1_2
 _jana_cell_twin_matrix_1_3
 _jana_cell_twin_matrix_2_1
 _jana_cell_twin_matrix_2_2
 _jana_cell_twin_matrix_2_3
 _jana_cell_twin_matrix_3_1
 _jana_cell_twin_matrix_3_2
 _jana_cell_twin_matrix_3_3
1 0.6190(9)
1 0 0
0 1 0
0 0 1
2 0.3810(9)
1 0 0
0 -1 0
0 0 -1

_cell_modulation_dimension               1
loop_
 _cell_wave_vector_seq_id
 _cell_wave_vector_x
 _cell_wave_vector_y
 _cell_wave_vector_z
 1  0.000000  0.083333  0.000000

_jana_cell_commen_supercell_matrix_1_1   1
_jana_cell_commen_supercell_matrix_1_2   0
_jana_cell_commen_supercell_matrix_1_3   0
_jana_cell_commen_supercell_matrix_2_1   0
_jana_cell_commen_supercell_matrix_2_2   12
_jana_cell_commen_supercell_matrix_2_3   0
_jana_cell_commen_supercell_matrix_3_1   0
_jana_cell_commen_supercell_matrix_3_2   0
_jana_cell_commen_supercell_matrix_3_3   1

_jana_cell_commen_t_section_1            0

_cell_formula_units_Z                    1

_cell_measurement_reflns_used            ?
_cell_measurement_theta_min              ?
_cell_measurement_theta_max              ?
_cell_measurement_temperature            90
_cell_special_details
?

_exptl_crystal_density_diffrn            5.9374
_exptl_crystal_density_meas              ?
_exptl_crystal_density_method            ?
_exptl_crystal_F_000                     178

_exptl_absorpt_coefficient_mu            18.677
_exptl_crystal_description               ?
_exptl_crystal_size_max                  ?
_exptl_crystal_size_mid                  ?
_exptl_crystal_size_min                  ?
_exptl_crystal_size_rad                  ?
_exptl_crystal_colour                    ?
_exptl_absorpt_correction_type           ?
_exptl_absorpt_process_details           ?
_exptl_absorpt_correction_T_min          ?
_exptl_absorpt_correction_T_max          ?

#=======================================================================

# 7. EXPERIMENTAL DATA

_exptl_special_details                   ?

_diffrn_ambient_temperature              90
_diffrn_source                           ?
_diffrn_source_power                     ?
_diffrn_source_voltage                   ?
_diffrn_source_current                   ?
_diffrn_radiation_type                   'Mo K\a'
_diffrn_radiation_source                 'X-ray tube'
_diffrn_radiation_wavelength             0.71069
_diffrn_radiation_monochromator          graphite
_diffrn_measurement_device               'four-cycle diffractometer'
_diffrn_measurement_device_type          'Bruker CCD'
_diffrn_detector                         ?
_diffrn_detector_area_resol_mean         ?
_diffrn_measurement_method               ?
_diffrn_measurement_specimen_support     ?

_diffrn_reflns_number                    53568
_diffrn_reflns_theta_min                 2.6
_diffrn_reflns_theta_max                 38.62
_diffrn_reflns_theta_full                34.23
_diffrn_measured_fraction_theta_max      0.89
_diffrn_measured_fraction_theta_full     0.98
_diffrn_reflns_av_R_equivalents          0.0377
_diffrn_reflns_av_sigmaI/netI            0.0215
_diffrn_reflns_limit_h_min               -13
_diffrn_reflns_limit_h_max               13
_diffrn_reflns_limit_k_min               -8
_diffrn_reflns_limit_k_max               8
_diffrn_reflns_limit_l_min               -9
_diffrn_reflns_limit_l_max               9
_diffrn_reflns_limit_index_m_1_min       -5
_diffrn_reflns_limit_index_m_1_max       6
_diffrn_reflns_reduction_process         ?

_diffrn_standards_number                 ?
_diffrn_standards_interval_count         ?
_diffrn_standards_interval_time          ?
_diffrn_standards_decay_%                ?
loop_
_diffrn_standard_refln_index_h
_diffrn_standard_refln_index_k
_diffrn_standard_refln_index_l
  ? ? ?

_diffrn_radiation_probe                  x-ray

#=======================================================================

# 8. REFINEMENT DATA

_refine_special_details
?

_reflns_number_total                     7093
_reflns_number_gt                        6809
_reflns_threshold_expression             'I>3\s(I)'

_refine_ls_structure_factor_coef         F
_refine_ls_R_factor_gt                   0.0292
_refine_ls_wR_factor_gt                  0.0431
_refine_ls_R_factor_all                  0.0310
_refine_ls_wR_factor_ref                 0.0433
_refine_ls_goodness_of_fit_ref           2.66
_refine_ls_goodness_of_fit_gt            2.70
_refine_ls_restrained_S_gt               ?
_refine_ls_restrained_S_all              ?
_refine_ls_number_reflns                 7093
_refine_ls_number_parameters             147
_refine_ls_number_restraints             0
_refine_ls_number_constraints            8
_refine_ls_weighting_scheme              sigma
_refine_ls_weighting_details             'w=1/(\s^2^(F)+0.0001F^2^)'
_refine_ls_hydrogen_treatment            ?
_refine_ls_shift/su_max                  0.0168
_refine_ls_shift/su_mean                 0.0004
_refine_diff_density_max                 5.27
_refine_diff_density_min                 -3.60
_refine_ls_extinction_method
 'B-C type 1 Gaussian isotropic (Becker & Coppens, 1974)'
_refine_ls_extinction_coef               1410(60)
_refine_ls_abs_structure_details         ?
_refine_ls_abs_structure_Flack           ?
_refine_ls_abs_structure_Rogers          ?

loop_
 _atom_type_symbol
 _atom_type_scat_dispersion_real
 _atom_type_scat_dispersion_imag
 _atom_type_scat_source
 Fe  0.3463  0.8444
 'International Tables Vol C tables 4.2.6.8 and 6.1.1.1'
 La -0.2871  2.4523
 'International Tables Vol C tables 4.2.6.8 and 6.1.1.1'
 O   0.0106  0.0060
 'International Tables Vol C tables 4.2.6.8 and 6.1.1.1'
 Ti  0.2776  0.4457
 'International Tables Vol C tables 4.2.6.8 and 6.1.1.1'

_computing_data_collection               ?
_computing_cell_refinement               ?
_computing_data_reduction                ?
_computing_structure_solution            ?
_computing_structure_refinement          ?
_computing_molecular_graphics            ?
_computing_publication_material          ?

#=======================================================================

# 9. ATOMIC COORDINATES AND DISPLACEMENT PARAMETERS

loop_
 _atom_site_label
 _atom_site_type_symbol
 _atom_site_fract_x
 _atom_site_fract_y
 _atom_site_fract_z
 _atom_site_adp_type
 _atom_site_U_iso_or_equiv
 _atom_site_symmetry_multiplicity
 _atom_site_occupancy
 _atom_site_calc_flag
 _atom_site_refinement_flags
 _atom_site_disorder_assembly
 _atom_site_disorder_group
  La1 La -0.000401(17) -0.01749(3) 0.00289(2) Uani 0.00172(4) 16 0.125 d . . .
  La2 La -0.00128(4) 0.29590(4) -0.09028(4) Uani 0.00192(5) 16 0.0417 d . . .
  La3 La -0.00316(4) -0.22544(5) 0.04476(4) Uani 0.00432(5) 16 0.0417 d . . .
  Ti11 Ti 0.25 0 0.5 Uani 0.00120(10) 8 0.0214(8) d . . .
  Fe11 Fe 0.25 0 0.5 Uani 0.00120(10) 8 0.0203(8) d . . .
  Ti12 Ti 0.25 0 0.5 Uani 0.00120(10) 16 0.0363(7) d . . .
  Fe12 Fe 0.25 0 0.5 Uani 0.00120(10) 16 0.0053(7) d . . .
  Ti13 Ti 0.25 0 0.5 Uani 0.00120(10) 16 0.0406(6) d . . .
  Fe13 Fe 0.25 0 0.5 Uani 0.00120(10) 16 0.0010(6) d . . .
  Ti21 Ti 0.75 0 0.5 Uani 0.00107(10) 8 0.0213(8) d . . .
  Fe21 Fe 0.75 0 0.5 Uani 0.00107(10) 8 0.0203(8) d . . .
  Ti22 Ti 0.75 0 0.5 Uani 0.00107(10) 16 0.0366(7) d . . .
  Fe22 Fe 0.75 0 0.5 Uani 0.00107(10) 16 0.0051(7) d . . .
  Ti23 Ti 0.75 0 0.5 Uani 0.00107(10) 16 0.0394(6) d . . .
  Fe23 Fe 0.75 0 0.5 Uani 0.00107(10) 16 0.0022(6) d . . .
  O1 O 0.00002(19) 0.0037(3) 0.5556(3) Uani 0.0034(3) 16 0.2083 d . . .
  O2 O 0.22615(18) 0.2144(3) 0.2075(2) Uani 0.0038(3) 16 0.25 d . . .
  O3 O 0.77553(18) 0.2050(3) 0.2024(2) Uani 0.0035(3) 16 0.25 d . . .

loop_
 _atom_site_aniso_label
 _atom_site_aniso_type_symbol
 _atom_site_aniso_U_11
 _atom_site_aniso_U_22
 _atom_site_aniso_U_33
 _atom_site_aniso_U_12
 _atom_site_aniso_U_13
 _atom_site_aniso_U_23
 La1 La 0.00100(6) 0.00266(7) 0.00152(7) 0.00023(8) -0.00012(5) -0.00089(3)
 La2 La 0.00067(7) 0.00357(9) 0.00151(7) -0.00079(9) 0.00075(9) -0.00151(6)
 La3 La 0.00046(7) 0.00877(11) 0.00374(8) 0.00076(10) 0.00003(10) -0.00364(7)
 Ti11 Ti 0.00125(16) 0.00125(19) 0.00110(16) 0.0001(3) -0.00055(17) -0.00015(11)
 Fe11 Fe 0.00125(16) 0.00125(19) 0.00110(16) 0.0001(3) -0.00055(17) -0.00015(11)
 Ti12 Ti 0.00125(16) 0.00125(19) 0.00110(16) 0.0001(3) -0.00055(17) -0.00015(11)
 Fe12 Fe 0.00125(16) 0.00125(19) 0.00110(16) 0.0001(3) -0.00055(17) -0.00015(11)
 Ti13 Ti 0.00125(16) 0.00125(19) 0.00110(16) 0.0001(3) -0.00055(17) -0.00015(11)
 Fe13 Fe 0.00125(16) 0.00125(19) 0.00110(16) 0.0001(3) -0.00055(17) -0.00015(11)
 Ti21 Ti 0.00130(16) 0.00118(19) 0.00072(16) 0.0002(3) -0.00048(17) 0.00013(11)
 Fe21 Fe 0.00130(16) 0.00118(19) 0.00072(16) 0.0002(3) -0.00048(17) 0.00013(11)
 Ti22 Ti 0.00130(16) 0.00118(19) 0.00072(16) 0.0002(3) -0.00048(17) 0.00013(11)
 Fe22 Fe 0.00130(16) 0.00118(19) 0.00072(16) 0.0002(3) -0.00048(17) 0.00013(11)
 Ti23 Ti 0.00130(16) 0.00118(19) 0.00072(16) 0.0002(3) -0.00048(17) 0.00013(11)
 Fe23 Fe 0.00130(16) 0.00118(19) 0.00072(16) 0.0002(3) -0.00048(17) 0.00013(11)
 O1 O 0.0023(5) 0.0032(6) 0.0049(5) -0.0003(5) 0.0001(4) -0.0004(4)
 O2 O 0.0037(5) 0.0041(6) 0.0036(5) -0.0003(4) 0.0000(4) 0.0004(4)
 O3 O 0.0045(5) 0.0036(6) 0.0025(5) 0.0000(4) 0.0009(4) 0.0012(4)


loop_
 _atom_site_Fourier_wave_vector_seq_id
 _jana_atom_site_Fourier_wave_vector_q1_coeff
    1    1
    2    2
    3    3
    4    4
    5    5
    6    6

loop_
 _jana_atom_site_crenel_ortho_func_id
 _jana_atom_site_crenel_ortho_func_c
 _jana_atom_site_crenel_ortho_func_w
 _jana_atom_site_crenel_ortho_func_eps
 1  0.000000  0.125000  0.950000
 2  0.000000  0.208333  0.950000
 3  0.000000  0.250000  0.950000
 4  0.000000  0.250000  0.950000

loop_
_atom_site_occ_Fourier_atom_site_label
_atom_site_occ_Fourier_wave_vector_seq_id
_atom_site_occ_Fourier_param_cos
_atom_site_occ_Fourier_param_sin
 ? ? ? ?

loop_
_jana_atom_site_occ_Legendre_atom_site_label
_jana_atom_site_occ_Legendre_param_order
_jana_atom_site_occ_Legendre_param_coeff
 ? ? ?

loop_
_jana_atom_site_occ_crenel_ortho_atom_site_label
_jana_atom_site_occ_crenel_ortho_param_order
_jana_atom_site_occ_crenel_ortho_id
_jana_atom_site_occ_crenel_ortho_param_coeff
 ? ? ? ?

loop_
 _atom_site_occ_special_func_atom_site_label
 _atom_site_occ_special_func_crenel_c
 _atom_site_occ_special_func_crenel_w
 La1  0  0.125
 La2  0.107948(3)  0.0417
 La3 -0.102079(4)  0.0417
 Ti11  0  0.0417
 Fe11  0  0.0417
 Ti12  0.0417  0.0417
 Fe12  0.0417  0.0417
 Ti13  0.0833  0.0417
 Fe13  0.0833  0.0417
 Ti21  0  0.0417
 Fe21  0  0.0417
 Ti22  0.0417  0.0417
 Fe22  0.0417  0.0417
 Ti23  0.0833  0.0417
 Fe23  0.0833  0.0417
 O1  0  0.2083
 O2  0  0.25
 O3  0  0.25

loop_
 _atom_site_displace_Fourier_atom_site_label
 _atom_site_displace_Fourier_axis
 _atom_site_displace_Fourier_wave_vector_seq_id
 _atom_site_displace_Fourier_param_cos
 _atom_site_displace_Fourier_param_sin
 Ti11  x  1     0               -0.0059(3)
 Ti11  y  1     0                0.1267(3)
 Ti11  z  1     0               -0.0769(2)
 Ti11  x  2     0                0
 Ti11  y  2     0                0
 Ti11  z  2     0                0
 Ti11  x  3     0                0
 Ti11  y  3     0                0
 Ti11  z  3     0                0
 Ti11  x  4     0                0
 Ti11  y  4     0                0
 Ti11  z  4     0                0
 Ti11  x  5     0                0
 Ti11  y  5     0                0
 Ti11  z  5     0                0
 Ti11  x  6     0                0.00226(17)
 Ti11  y  6     0                0.02445(15)
 Ti11  z  6     0                0.02821(13)
 Fe11  x  1     0               -0.0059(3)
 Fe11  y  1     0                0.1267(3)
 Fe11  z  1     0               -0.0769(2)
 Fe11  x  2     0                0
 Fe11  y  2     0                0
 Fe11  z  2     0                0
 Fe11  x  3     0                0
 Fe11  y  3     0                0
 Fe11  z  3     0                0
 Fe11  x  4     0                0
 Fe11  y  4     0                0
 Fe11  z  4     0                0
 Fe11  x  5     0                0
 Fe11  y  5     0                0
 Fe11  z  5     0                0
 Fe11  x  6     0                0.00226(17)
 Fe11  y  6     0                0.02445(15)
 Fe11  z  6     0                0.02821(13)
 Ti12  x  1     0               -0.0059(3)
 Ti12  y  1     0                0.1267(3)
 Ti12  z  1     0               -0.0769(2)
 Ti12  x  2     0                0
 Ti12  y  2     0                0
 Ti12  z  2     0                0
 Ti12  x  3     0                0
 Ti12  y  3     0                0
 Ti12  z  3     0                0
 Ti12  x  4     0                0
 Ti12  y  4     0                0
 Ti12  z  4     0                0
 Ti12  x  5     0                0
 Ti12  y  5     0                0
 Ti12  z  5     0                0
 Ti12  x  6     0                0.00226(17)
 Ti12  y  6     0                0.02445(15)
 Ti12  z  6     0                0.02821(13)
 Fe12  x  1     0               -0.0059(3)
 Fe12  y  1     0                0.1267(3)
 Fe12  z  1     0               -0.0769(2)
 Fe12  x  2     0                0
 Fe12  y  2     0                0
 Fe12  z  2     0                0
 Fe12  x  3     0                0
 Fe12  y  3     0                0
 Fe12  z  3     0                0
 Fe12  x  4     0                0
 Fe12  y  4     0                0
 Fe12  z  4     0                0
 Fe12  x  5     0                0
 Fe12  y  5     0                0
 Fe12  z  5     0                0
 Fe12  x  6     0                0.00226(17)
 Fe12  y  6     0                0.02445(15)
 Fe12  z  6     0                0.02821(13)
 Ti13  x  1     0               -0.0059(3)
 Ti13  y  1     0                0.1267(3)
 Ti13  z  1     0               -0.0769(2)
 Ti13  x  2     0                0
 Ti13  y  2     0                0
 Ti13  z  2     0                0
 Ti13  x  3     0                0
 Ti13  y  3     0                0
 Ti13  z  3     0                0
 Ti13  x  4     0                0
 Ti13  y  4     0                0
 Ti13  z  4     0                0
 Ti13  x  5     0                0
 Ti13  y  5     0                0
 Ti13  z  5     0                0
 Ti13  x  6     0                0.00226(17)
 Ti13  y  6     0                0.02445(15)
 Ti13  z  6     0                0.02821(13)
 Fe13  x  1     0               -0.0059(3)
 Fe13  y  1     0                0.1267(3)
 Fe13  z  1     0               -0.0769(2)
 Fe13  x  2     0                0
 Fe13  y  2     0                0
 Fe13  z  2     0                0
 Fe13  x  3     0                0
 Fe13  y  3     0                0
 Fe13  z  3     0                0
 Fe13  x  4     0                0
 Fe13  y  4     0                0
 Fe13  z  4     0                0
 Fe13  x  5     0                0
 Fe13  y  5     0                0
 Fe13  z  5     0                0
 Fe13  x  6     0                0.00226(17)
 Fe13  y  6     0                0.02445(15)
 Fe13  z  6     0                0.02821(13)
 Ti21  x  1     0                0.0023(3)
 Ti21  y  1     0                0.1441(3)
 Ti21  z  1     0               -0.0846(2)
 Ti21  x  2     0                0
 Ti21  y  2     0                0
 Ti21  z  2     0                0
 Ti21  x  3     0                0
 Ti21  y  3     0                0
 Ti21  z  3     0                0
 Ti21  x  4     0                0
 Ti21  y  4     0                0
 Ti21  z  4     0                0
 Ti21  x  5     0                0
 Ti21  y  5     0                0
 Ti21  z  5     0                0
 Ti21  x  6     0               -0.00184(17)
 Ti21  y  6     0                0.02354(15)
 Ti21  z  6     0                0.02883(12)
 Fe21  x  1     0                0.0023(3)
 Fe21  y  1     0                0.1441(3)
 Fe21  z  1     0               -0.0846(2)
 Fe21  x  2     0                0
 Fe21  y  2     0                0
 Fe21  z  2     0                0
 Fe21  x  3     0                0
 Fe21  y  3     0                0
 Fe21  z  3     0                0
 Fe21  x  4     0                0
 Fe21  y  4     0                0
 Fe21  z  4     0                0
 Fe21  x  5     0                0
 Fe21  y  5     0                0
 Fe21  z  5     0                0
 Fe21  x  6     0               -0.00184(17)
 Fe21  y  6     0                0.02354(15)
 Fe21  z  6     0                0.02883(12)
 Ti22  x  1     0                0.0023(3)
 Ti22  y  1     0                0.1441(3)
 Ti22  z  1     0               -0.0846(2)
 Ti22  x  2     0                0
 Ti22  y  2     0                0
 Ti22  z  2     0                0
 Ti22  x  3     0                0
 Ti22  y  3     0                0
 Ti22  z  3     0                0
 Ti22  x  4     0                0
 Ti22  y  4     0                0
 Ti22  z  4     0                0
 Ti22  x  5     0                0
 Ti22  y  5     0                0
 Ti22  z  5     0                0
 Ti22  x  6     0               -0.00184(17)
 Ti22  y  6     0                0.02354(15)
 Ti22  z  6     0                0.02883(12)
 Fe22  x  1     0                0.0023(3)
 Fe22  y  1     0                0.1441(3)
 Fe22  z  1     0               -0.0846(2)
 Fe22  x  2     0                0
 Fe22  y  2     0                0
 Fe22  z  2     0                0
 Fe22  x  3     0                0
 Fe22  y  3     0                0
 Fe22  z  3     0                0
 Fe22  x  4     0                0
 Fe22  y  4     0                0
 Fe22  z  4     0                0
 Fe22  x  5     0                0
 Fe22  y  5     0                0
 Fe22  z  5     0                0
 Fe22  x  6     0               -0.00184(17)
 Fe22  y  6     0                0.02354(15)
 Fe22  z  6     0                0.02883(12)
 Ti23  x  1     0                0.0023(3)
 Ti23  y  1     0                0.1441(3)
 Ti23  z  1     0               -0.0846(2)
 Ti23  x  2     0                0
 Ti23  y  2     0                0
 Ti23  z  2     0                0
 Ti23  x  3     0                0
 Ti23  y  3     0                0
 Ti23  z  3     0                0
 Ti23  x  4     0                0
 Ti23  y  4     0                0
 Ti23  z  4     0                0
 Ti23  x  5     0                0
 Ti23  y  5     0                0
 Ti23  z  5     0                0
 Ti23  x  6     0               -0.00184(17)
 Ti23  y  6     0                0.02354(15)
 Ti23  z  6     0                0.02883(12)
 Fe23  x  1     0                0.0023(3)
 Fe23  y  1     0                0.1441(3)
 Fe23  z  1     0               -0.0846(2)
 Fe23  x  2     0                0
 Fe23  y  2     0                0
 Fe23  z  2     0                0
 Fe23  x  3     0                0
 Fe23  y  3     0                0
 Fe23  z  3     0                0
 Fe23  x  4     0                0
 Fe23  y  4     0                0
 Fe23  z  4     0                0
 Fe23  x  5     0                0
 Fe23  y  5     0                0
 Fe23  z  5     0                0
 Fe23  x  6     0               -0.00184(17)
 Fe23  y  6     0                0.02354(15)
 Fe23  z  6     0                0.02883(12)

loop_
_jana_atom_site_displace_Legendre_atom_site_label
_jana_atom_site_displace_Legendre_axis
_jana_atom_site_displace_Legendre_param_order
_jana_atom_site_displace_Legendre_param_coeff
 ? ? ? ?

loop_
 _jana_atom_site_displace_crenel_ortho_atom_site_label
 _jana_atom_site_displace_crenel_ortho_axis
 _jana_atom_site_displace_crenel_ortho_id
 _jana_atom_site_displace_crenel_ortho_param_order
 _jana_atom_site_displace_crenel_ortho_param_coeff
 La1   x  1  1 -0.00016(4)
 La1   y  1  1  0.03182(3)
 La1   z  1  1  0.00235(2)
 La1   x  1  2  0.00011(2)
 La1   y  1  2  0.00132(3)
 La1   z  1  2 -0.00083(3)
 O1    x  2  1  0.0005(2)
 O1    y  2  1  0.0108(3)
 O1    z  2  1 -0.0136(3)
 O1    x  2  2 -0.0007(2)
 O1    y  2  2  0.0137(3)
 O1    z  2  2  0.0007(3)
 O1    x  2  3 -0.0011(3)
 O1    y  2  3  0.0015(4)
 O1    z  2  3  0.0076(3)
 O1    x  2  4  0.0007(3)
 O1    y  2  4 -0.0143(4)
 O1    z  2  4  0.0023(4)
 O2    x  3  1 -0.00064(19)
 O2    y  3  1  0.0343(3)
 O2    z  3  1  0.0034(3)
 O2    x  3  2 -0.0098(2)
 O2    y  3  2 -0.0061(3)
 O2    z  3  2  0.0147(3)
 O2    x  3  3  0.0114(3)
 O2    y  3  3 -0.0059(4)
 O2    z  3  3 -0.0084(3)
 O2    x  3  4  0.0054(2)
 O2    y  3  4  0.0088(4)
 O2    z  3  4 -0.0019(3)
 O2    x  3  5 -0.0118(3)
 O2    y  3  5  0.0058(5)
 O2    z  3  5  0.0045(4)
 O2    x  3  6  0
 O2    y  3  6  0
 O2    z  3  6  0
 O3    x  4  1 -0.00011(19)
 O3    y  4  1  0.0347(3)
 O3    z  4  1  0.0010(3)
 O3    x  4  2  0.0057(2)
 O3    y  4  2  0.0015(3)
 O3    z  4  2  0.0170(2)
 O3    x  4  3 -0.0121(3)
 O3    y  4  3 -0.0047(4)
 O3    z  4  3 -0.0062(3)
 O3    x  4  4 -0.0026(2)
 O3    y  4  4  0.0061(4)
 O3    z  4  4 -0.0012(3)
 O3    x  4  5  0.0124(3)
 O3    y  4  5  0.0045(5)
 O3    z  4  5  0.0023(4)
 O3    x  4  6  0
 O3    y  4  6  0
 O3    z  4  6  0

loop_
 _jana_atom_site_U_crenel_ortho_atom_site_label
 _jana_atom_site_U_crenel_ortho_tens_elem
 _jana_atom_site_U_crenel_ortho_id
 _jana_atom_site_U_crenel_ortho_param_order
 _jana_atom_site_U_crenel_ortho_param_coeff
 La1   U11  1  1  0.00013(4)
 La1   U22  1  1  0.00071(5)
 La1   U33  1  1  0.00039(5)
 La1   U12  1  1 -0.00015(5)
 La1   U13  1  1  0.00001(4)
 La1   U23  1  1 -0.00016(4)
 La1   U11  1  2  0.00052(4)
 La1   U22  1  2 -0.00047(6)
 La1   U33  1  2  0.00004(5)
 La1   U12  1  2 -0.00004(8)
 La1   U13  1  2  0.00023(7)
 La1   U23  1  2  0.00037(4)


#=======================================================================

# 10. MOLECULAR GEOMETRY


loop_
 _geom_bond_atom_site_label_1
 _geom_bond_atom_site_label_2
 _geom_bond_site_ssg_symmetry_1
 _geom_bond_site_ssg_symmetry_2
 _geom_bond_distance_av
 _geom_bond_distance_min
 _geom_bond_distance_max
 _geom_bond_publ_flag
  La1 La1 . 1_5545 5.53660(16) 5.53660(16) 5.53660(16) ?
  La1 La1 . 1_5565 5.53660(16) 5.53660(16) 5.53660(16) ?
  La1 La1 . 7_4555 3.91382(19) 3.91382(19) 3.91382(19) ?
  La1 La1 . 7_5555 3.92194(19) 3.92194(19) 3.92194(19) ?
  La1 Ti11 . 1_5545 3.40058(12) 3.40058(12) 3.40058(12) ?
  La1 Ti11 . . 3.38435(12) 3.38435(12) 3.38435(12) ?
  La1 Fe11 . 1_5545 3.40058(12) 3.40058(12) 3.40058(12) ?
  La1 Fe11 . . 3.38435(12) 3.38435(12) 3.38435(12) ?
  La1 Ti21 . 1_4545 3.39824(12) 3.39824(12) 3.39824(12) ?
  La1 Ti21 . 1_4555 3.38200(12) 3.38200(12) 3.38200(12) ?
  La1 Fe21 . 1_4545 3.39824(12) 3.39824(12) 3.39824(12) ?
  La1 Fe21 . 1_4555 3.38200(12) 3.38200(12) 3.38200(12) ?
  La1 O1 . 1_5445 5.776(8) 5.776(8) 5.776(8) ?
  La1 O1 . 1_5545 2.4548(15) 2.4548(15) 2.4548(15) ?
  La1 O1 . . 3.0856(15) 3.0856(15) 3.0856(15) ?
  La1 O1 . 1_5645 5.977(8) 5.977(8) 5.977(8) ?
  La1 O1 . 7_4555 4.9950(15) 4.9950(15) 4.9950(15) ?
  La1 O1 . 7_4565 4.6081(15) 4.6081(15) 4.6081(15) ?
  La1 O1 . 7_5555 4.9963(15) 4.9963(15) 4.9963(15) ?
  La1 O1 . 7_5565 4.6095(15) 4.6095(15) 4.6095(15) ?
  La1 O2 . 1_5455 4.639(13) 4.639(13) 4.639(13) ?
  La1 O2 . 1_5545 4.815(8) 4.815(8) 4.815(8) ?
  La1 O2 . . 2.442(8) 2.442(8) 2.442(8) ?
  La1 O2 . 7_4555 5.836(7) 5.836(7) 5.836(7) ?
  La1 O2 . 7_5555 2.775(8) 2.775(8) 2.775(8) ?
  La1 O2 . 7_5565 4.970(8) 4.970(8) 4.970(8) ?
  La1 O2 . 7_5655 5.092(13) 5.092(13) 5.092(13) ?
  La1 O3 . 1_4455 4.662(13) 4.662(13) 4.662(13) ?
  La1 O3 . 1_4545 4.824(6) 4.824(6) 4.824(6) ?
  La1 O3 . 1_4555 2.423(6) 2.423(6) 2.423(6) ?
  La1 O3 . 7_5555 2.749(6) 2.749(6) 2.749(6) ?
  La1 O3 . 7_5565 4.973(6) 4.973(6) 4.973(6) ?
  La1 O3 . 7_5655 5.121(13) 5.121(13) 5.121(13) ?
  La1 O3 . 7_6555 5.839(6) 5.839(6) 5.839(6) ?
  La1 La11 . 6_4545 5.3937(11) 5.3937(11) 5.3937(11) ?
  La1 La11 . 6_4555 5.3795(11) 5.3795(11) 5.3795(11) ?
  La1 La11 . 6_4645 5.6267(10) 5.6267(10) 5.6267(10) ?
  La1 La11 . 6_4655 5.6009(10) 5.6009(10) 5.6009(10) ?
  La1 La11 . 6_5545 5.3968(11) 5.3968(11) 5.3968(11) ?
  La1 La11 . 6_5555 5.3825(11) 5.3825(11) 5.3825(11) ?
  La1 La11 . 6_5645 5.6260(10) 5.6260(10) 5.6260(10) ?
  La1 La11 . 6_5655 5.6002(10) 5.6002(10) 5.6002(10) ?
  La1 La11 . 8_4445 3.8896(6) 3.8896(6) 3.8896(6) ?
  La1 La11 . 8_4455 3.8985(6) 3.8985(6) 3.8985(6) ?
  La1 La11 . 8_4545 3.8311(6) 3.8311(6) 3.8311(6) ?
  La1 La11 . 8_4555 3.8224(6) 3.8224(6) 3.8224(6) ?
  La1 Ti121 . 6_5545 3.428(3) 3.428(3) 3.428(3) ?
  La1 Ti121 . 8_4555 3.585(3) 3.585(3) 3.585(3) ?
  La1 Fe121 . 6_5545 3.428(3) 3.428(3) 3.428(3) ?
  La1 Fe121 . 8_4555 3.585(3) 3.585(3) 3.585(3) ?
  La1 Ti221 . 6_5545 3.438(3) 3.438(3) 3.438(3) ?
  La1 Ti221 . 8_3555 3.601(3) 3.601(3) 3.601(3) ?
  La1 Fe221 . 6_5545 3.438(3) 3.438(3) 3.438(3) ?
  La1 Fe221 . 8_3555 3.601(3) 3.601(3) 3.601(3) ?
  La1 O11 . 6_4545 4.96(2) 4.96(2) 4.96(2) ?
  La1 O11 . 6_4645 4.69(2) 4.69(2) 4.69(2) ?
  La1 O11 . 6_5545 4.93(2) 4.93(2) 4.93(2) ?
  La1 O11 . 6_5645 4.65(2) 4.65(2) 4.65(2) ?
  La1 O11 . 8_4455 2.370(17) 2.370(17) 2.370(17) ?
  La1 O11 . 8_4465 5.883(15) 5.883(15) 5.883(15) ?
  La1 O11 . 8_4555 3.202(17) 3.202(17) 3.202(17) ?
  La1 O21 . 6_4545 3.68(3) 3.68(3) 3.68(3) ?
  La1 O21 . 6_4645 4.09(2) 4.09(2) 4.09(2) ?
  La1 O21 . 6_5645 5.21(2) 5.21(2) 5.21(2) ?
  La1 O21 . 8_4445 5.17(2) 5.17(2) 5.17(2) ?
  La1 O21 . 8_4455 2.40(2) 2.40(2) 2.40(2) ?
  La1 O21 . 8_4555 4.18(3) 4.18(3) 4.18(3) ?
  La1 O31 . 6_5645 5.14(2) 5.14(2) 5.14(2) ?
  La1 O31 . 6_6545 3.76(3) 3.76(3) 3.76(3) ?
  La1 O31 . 6_6555 5.99(3) 5.99(3) 5.99(3) ?
  La1 O31 . 6_6645 4.25(2) 4.25(2) 4.25(2) ?
  La1 O31 . 8_3445 4.95(2) 4.95(2) 4.95(2) ?
  La1 O31 . 8_3455 2.46(2) 2.46(2) 2.46(2) ?
  La1 O31 . 8_3555 4.13(3) 4.13(3) 4.13(3) ?
  La2 La2 . 1_5545 5.5366(3) 5.5366(3) 5.5366(3) ?
  La2 La2 . 1_5565 5.5366(3) 5.5366(3) 5.5366(3) ?
  La2 La2 . 2_5645 4.0132(3) 4.0132(3) 4.0132(3) ?
  La2 La2 . 2_5655 4.0132(3) 4.0132(3) 4.0132(3) ?
  La2 La3 . 7_4555 3.9043(4) 3.9043(4) 3.9043(4) ?
  La2 La3 . 7_5555 3.9735(4) 3.9735(4) 3.9735(4) ?
  La2 La3 . 8_4645 4.0570(4) 4.0570(4) 4.0570(4) ?
  La2 La3 . 8_4655 4.3874(3) 4.3874(3) 4.3874(3) ?
  La2 Ti13 . 1_5545 3.3778(5) 3.3778(5) 3.3778(5) ?
  La2 Ti13 . . 3.8192(5) 3.8192(5) 3.8192(5) ?
  La2 Ti13 . 2_5645 3.3558(4) 3.3558(4) 3.3558(4) ?
  La2 Fe13 . 1_5545 3.3778(5) 3.3778(5) 3.3778(5) ?
  La2 Fe13 . . 3.8192(5) 3.8192(5) 3.8192(5) ?
  La2 Fe13 . 2_5645 3.3558(4) 3.3558(4) 3.3558(4) ?
  La2 Ti23 . 1_4545 3.3736(5) 3.3736(5) 3.3736(5) ?
  La2 Ti23 . 1_4555 3.7845(5) 3.7845(5) 3.7845(5) ?
  La2 Ti23 . 2_5645 5.1247(6) 5.1247(6) 5.1247(6) ?
  La2 Ti23 . 2_6645 5.1249(6) 5.1249(6) 5.1249(6) ?
  La2 Fe23 . 1_4545 3.3736(5) 3.3736(5) 3.3736(5) ?
  La2 Fe23 . 1_4555 3.7845(5) 3.7845(5) 3.7845(5) ?
  La2 Fe23 . 2_5645 5.1247(6) 5.1247(6) 5.1247(6) ?
  La2 Fe23 . 2_6645 5.1249(6) 5.1249(6) 5.1249(6) ?
  La2 O1 . 1_5545 2.537(8) 2.537(8) 2.537(8) ?
  La2 O1 . . 3.760(8) 3.760(8) 3.760(8) ?
  La2 O1 . 2_5645 4.150(9) 4.150(9) 4.150(9) ?
  La2 O1 . 7_4555 4.948(9) 4.948(9) 4.948(9) ?
  La2 O1 . 7_4565 5.009(9) 5.009(9) 5.009(9) ?
  La2 O1 . 7_5555 4.972(9) 4.972(9) 4.972(9) ?
  La2 O1 . 7_5565 5.033(9) 5.033(9) 5.033(9) ?
  La2 O1 . 8_4655 4.022(8) 4.022(8) 4.022(8) ?
  La2 O2 . 1_5545 4.351(15) 4.351(15) 4.351(15) ?
  La2 O2 . . 2.441(15) 2.441(15) 2.441(15) ?
  La2 O2 . 2_5645 2.530(15) 2.530(15) 2.530(15) ?
  La2 O2 . 2_5655 4.908(15) 4.908(15) 4.908(15) ?
  La2 O2 . 7_5555 3.482(13) 3.482(13) 3.482(13) ?
  La2 O2 . 7_5565 5.897(13) 5.897(13) 5.897(13) ?
  La2 O2 . 8_4645 5.800(13) 5.800(13) 5.800(13) ?
  La2 O2 . 8_4655 5.064(13) 5.064(13) 5.064(13) ?
  La2 O3 . 1_4545 4.401(14) 4.401(14) 4.401(14) ?
  La2 O3 . 1_4555 2.382(14) 2.382(14) 2.382(14) ?
  La2 O3 . 2_5645 4.844(15) 4.844(15) 4.844(15) ?
  La2 O3 . 2_6645 4.633(15) 4.633(15) 4.633(15) ?
  La2 O3 . 7_5555 3.435(13) 3.435(13) 3.435(13) ?
  La2 O3 . 7_5565 5.908(13) 5.908(13) 5.908(13) ?
  La2 La11 . 6_4545 5.9936(10) 5.9936(10) 5.9936(10) ?
  La2 La11 . 8_4445 4.7810(6) 4.7810(6) 4.7810(6) ?
  La2 La11 . 8_4455 5.3325(6) 5.3325(6) 5.3325(6) ?
  La2 Ti121 . 8_4455 4.354(3) 4.354(3) 4.354(3) ?
  La2 Fe121 . 8_4455 4.354(3) 4.354(3) 4.354(3) ?
  La2 Ti221 . 8_3455 4.330(3) 4.330(3) 4.330(3) ?
  La2 Fe221 . 8_3455 4.330(3) 4.330(3) 4.330(3) ?
  La2 O11 . 6_4545 5.861(19) 5.861(19) 5.861(19) ?
  La2 O11 . 6_5545 5.846(19) 5.846(19) 5.846(19) ?
  La2 O11 . 8_4455 3.680(17) 3.680(17) 3.680(17) ?
  La2 O21 . 5_4545 4.235(11) 4.235(11) 4.235(11) ?
  La2 O21 . 5_4555 3.435(11) 3.435(11) 3.435(11) ?
  La2 O21 . 6_4545 5.58(2) 5.58(2) 5.58(2) ?
  La2 O21 . 6_4645 3.978(11) 3.978(11) 3.978(11) ?
  La2 O21 . 6_5645 3.958(11) 3.958(11) 3.958(11) ?
  La2 O21 . 8_4455 4.18(3) 4.18(3) 4.18(3) ?
  La2 O31 . 5_3545 4.454(11) 4.454(11) 4.454(11) ?
  La2 O31 . 5_3555 3.427(11) 3.427(11) 3.427(11) ?
  La2 O31 . 6_5645 3.850(11) 3.850(11) 3.850(11) ?
  La2 O31 . 6_6545 5.70(2) 5.70(2) 5.70(2) ?
  La2 O31 . 6_6645 4.140(11) 4.140(11) 4.140(11) ?
  La2 O31 . 7_6755 5.76(3) 5.76(3) 5.76(3) ?
  La2 O31 . 8_3445 5.88(3) 5.88(3) 5.88(3) ?
  La2 O31 . 8_3455 4.28(3) 4.28(3) 4.28(3) ?
  La3 La3 . 1_5545 5.5366(3) 5.5366(3) 5.5366(3) ?
  La3 La3 . 1_5565 5.5366(3) 5.5366(3) 5.5366(3) ?
  La3 La3 . 6_4445 4.4168(4) 4.4168(4) 4.4168(4) ?
  La3 La3 . 6_4455 4.4168(4) 4.4168(4) 4.4168(4) ?
  La3 Ti13 . 7_5555 3.5483(5) 3.5483(5) 3.5483(5) ?
  La3 Ti13 . 7_5565 3.4934(5) 3.4934(5) 3.4934(5) ?
  La3 Ti13 . 4_4455 5.3915(6) 5.3915(6) 5.3915(6) ?
  La3 Ti13 . 4_5455 5.3954(6) 5.3954(6) 5.3954(6) ?
  La3 Fe13 . 7_5555 3.5483(5) 3.5483(5) 3.5483(5) ?
  La3 Fe13 . 7_5565 3.4934(5) 3.4934(5) 3.4934(5) ?
  La3 Fe13 . 4_4455 5.3915(6) 5.3915(6) 5.3915(6) ?
  La3 Fe13 . 4_5455 5.3954(6) 5.3954(6) 5.3954(6) ?
  La3 Ti23 . 7_5555 3.4855(5) 3.4855(5) 3.4855(5) ?
  La3 Ti23 . 7_5565 3.4638(5) 3.4638(5) 3.4638(5) ?
  La3 Ti23 . 4_4455 3.6658(4) 3.6658(4) 3.6658(4) ?
  La3 Fe23 . 7_5555 3.4855(5) 3.4855(5) 3.4855(5) ?
  La3 Fe23 . 7_5565 3.4638(5) 3.4638(5) 3.4638(5) ?
  La3 Fe23 . 4_4455 3.6658(4) 3.6658(4) 3.6658(4) ?
  La3 O1 . 1_5545 2.766(7) 2.766(7) 2.766(7) ?
  La3 O1 . . 3.136(7) 3.136(7) 3.136(7) ?
  La3 O1 . 6_4445 4.340(8) 4.340(8) 4.340(8) ?
  La3 O1 . 7_4555 5.167(9) 5.167(9) 5.167(9) ?
  La3 O1 . 7_4565 4.667(10) 4.667(10) 4.667(10) ?
  La3 O1 . 7_5555 5.193(9) 5.193(9) 5.193(9) ?
  La3 O1 . 7_5565 4.696(10) 4.696(10) 4.696(10) ?
  La3 O1 . 4_5455 4.454(9) 4.454(9) 4.454(9) ?
  La3 O2 . 1_5545 5.286(13) 5.286(13) 5.286(13) ?
  La3 O2 . . 2.843(13) 2.843(13) 2.843(13) ?
  La3 O2 . 7_4555 5.884(15) 5.884(15) 5.884(15) ?
  La3 O2 . 7_5555 2.512(15) 2.512(15) 2.512(15) ?
  La3 O2 . 7_5565 4.698(15) 4.698(15) 4.698(15) ?
  La3 O2 . 7_5655 5.857(8) 5.857(8) 5.857(8) ?
  La3 O2 . 4_4455 4.991(15) 4.991(15) 4.991(15) ?
  La3 O2 . 4_5455 4.835(15) 4.835(15) 4.835(15) ?
  La3 O3 . 1_4545 5.287(13) 5.287(13) 5.287(13) ?
  La3 O3 . 1_4555 2.766(13) 2.766(13) 2.766(13) ?
  La3 O3 . 6_5445 5.285(13) 5.285(13) 5.285(13) ?
  La3 O3 . 7_5555 2.437(14) 2.437(14) 2.437(14) ?
  La3 O3 . 7_5565 4.736(14) 4.736(14) 4.736(14) ?
  La3 O3 . 7_5655 5.855(6) 5.855(6) 5.855(6) ?
  La3 O3 . 7_6555 5.899(14) 5.899(14) 5.899(14) ?
  La3 O3 . 4_4445 4.887(15) 4.887(15) 4.887(15) ?
  La3 O3 . 4_4455 3.118(15) 3.118(15) 3.118(15) ?
  La3 La11 . 8_4545 4.6589(6) 4.6589(6) 4.6589(6) ?
  La3 La11 . 8_4555 4.3750(6) 4.3750(6) 4.3750(6) ?
  La3 Ti121 . 6_5645 4.012(3) 4.012(3) 4.012(3) ?
  La3 Fe121 . 6_5645 4.012(3) 4.012(3) 4.012(3) ?
  La3 Ti221 . 6_5645 3.971(3) 3.971(3) 3.971(3) ?
  La3 Fe221 . 6_5645 3.971(3) 3.971(3) 3.971(3) ?
  La3 O11 . 6_4645 5.11(2) 5.11(2) 5.11(2) ?
  La3 O11 . 6_5645 5.12(2) 5.12(2) 5.12(2) ?
  La3 O11 . 8_4555 3.957(17) 3.957(17) 3.957(17) ?
  La3 O21 . 6_4645 3.46(3) 3.46(3) 3.46(3) ?
  La3 O21 . 6_4655 5.99(3) 5.99(3) 5.99(3) ?
  La3 O21 . 3_5555 3.505(11) 3.505(11) 3.505(11) ?
  La3 O21 . 3_5565 4.606(11) 4.606(11) 4.606(11) ?
  La3 O21 . 8_4445 4.784(11) 4.784(11) 4.784(11) ?
  La3 O21 . 8_4455 1.078(11) 1.078(11) 1.078(11) ?
  La3 O21 . 8_4555 4.26(2) 4.26(2) 4.26(2) ?
  La3 O31 . 6_6645 3.68(3) 3.68(3) 3.68(3) ?
  La3 O31 . 6_6655 5.71(3) 5.71(3) 5.71(3) ?
  La3 O31 . 3_6555 3.333(11) 3.333(11) 3.333(11) ?
  La3 O31 . 3_6565 4.690(11) 4.690(11) 4.690(11) ?
  La3 O31 . 8_3445 4.608(11) 4.608(11) 4.608(11) ?
  La3 O31 . 8_3455 1.210(11) 1.210(11) 1.210(11) ?
  La3 O31 . 8_3555 4.30(2) 4.30(2) 4.30(2) ?
  Ti11 Ti11 . 1_5545 5.5366 5.5366 5.5366 ?
  Ti11 Ti11 . 1_5565 5.5366 5.5366 5.5366 ?
  Ti11 Fe11 . 1_5545 5.5366 5.5366 5.5366 ?
  Ti11 Fe11 . . 0 0 0 ?
  Ti11 Fe11 . 1_5565 5.5366 5.5366 5.5366 ?
  Ti11 Ti13 . 1_5655 5.5524(3) 5.5524(3) 5.5524(3) ?
  Ti11 Ti13 . 7_5465 5.5524(3) 5.5524(3) 5.5524(3) ?
  Ti11 Fe13 . 1_5655 5.5524(3) 5.5524(3) 5.5524(3) ?
  Ti11 Fe13 . 7_5465 5.5524(3) 5.5524(3) 5.5524(3) ?
  Ti11 Ti21 . 1_4555 3.9136 3.9136 3.9136 ?
  Ti11 Ti21 . . 3.9136 3.9136 3.9136 ?
  Ti11 Fe21 . 1_4555 3.9136 3.9136 3.9136 ?
  Ti11 Fe21 . . 3.9136 3.9136 3.9136 ?
  Ti11 O1 . 1_5455 5.739(8) 5.739(8) 5.739(8) ?
  Ti11 O1 . 1_5545 5.5659(15) 5.5659(15) 5.5659(15) ?
  Ti11 O1 . . 1.9826(15) 1.9826(15) 1.9826(15) ?
  Ti11 O1 . 1_5655 5.651(9) 5.651(9) 5.651(9) ?
  Ti11 O1 . 1_6555 5.8806(15) 5.8806(15) 5.8806(15) ?
  Ti11 O1 . 7_4565 5.8806(15) 5.8806(15) 5.8806(15) ?
  Ti11 O1 . 7_5465 5.651(9) 5.651(9) 5.651(9) ?
  Ti11 O1 . 7_5565 1.9826(15) 1.9826(15) 1.9826(15) ?
  Ti11 O1 . 7_5575 5.5659(15) 5.5659(15) 5.5659(15) ?
  Ti11 O1 . 7_5665 5.739(8) 5.739(8) 5.739(8) ?
  Ti11 O2 . 1_5455 4.558(13) 4.558(13) 4.558(13) ?
  Ti11 O2 . 1_5465 5.858(13) 5.858(13) 5.858(13) ?
  Ti11 O2 . . 1.969(8) 1.969(8) 1.969(8) ?
  Ti11 O2 . 1_5565 4.174(8) 4.174(8) 4.174(8) ?
  Ti11 O2 . 7_5555 4.174(8) 4.174(8) 4.174(8) ?
  Ti11 O2 . 7_5565 1.969(8) 1.969(8) 1.969(8) ?
  Ti11 O2 . 7_5655 5.858(13) 5.858(13) 5.858(13) ?
  Ti11 O2 . 7_5665 4.558(13) 4.558(13) 4.558(13) ?
  Ti11 O3 . 1_4455 5.806(13) 5.806(13) 5.806(13) ?
  Ti11 O3 . 1_4555 4.137(6) 4.137(6) 4.137(6) ?
  Ti11 O3 . 1_4565 5.521(6) 5.521(6) 5.521(6) ?
  Ti11 O3 . . 4.610(6) 4.610(6) 4.610(6) ?
  Ti11 O3 . 1_5565 5.883(6) 5.883(6) 5.883(6) ?
  Ti11 O3 . 7_5555 5.883(6) 5.883(6) 5.883(6) ?
  Ti11 O3 . 7_5565 4.610(6) 4.610(6) 4.610(6) ?
  Ti11 O3 . 7_6555 5.521(6) 5.521(6) 5.521(6) ?
  Ti11 O3 . 7_6565 4.137(6) 4.137(6) 4.137(6) ?
  Ti11 O3 . 7_6665 5.806(13) 5.806(13) 5.806(13) ?
  Ti11 La11 . 6_5555 3.2152(10) 3.2152(10) 3.2152(10) ?
  Ti11 La11 . 6_5655 3.4389(9) 3.4389(9) 3.4389(9) ?
  Ti11 La11 . 8_4455 3.4390(9) 3.4390(9) 3.4390(9) ?
  Ti11 La11 . 8_4555 3.2152(10) 3.2152(10) 3.2152(10) ?
  Ti11 Ti121 . 6_5545 3.983(2) 3.983(2) 3.983(2) ?
  Ti11 Ti121 . 6_5555 4.046(2) 4.046(2) 4.046(2) ?
  Ti11 Ti121 . 8_4555 4.046(2) 4.046(2) 4.046(2) ?
  Ti11 Ti121 . 8_4565 3.983(2) 3.983(2) 3.983(2) ?
  Ti11 Fe121 . 6_5545 3.983(2) 3.983(2) 3.983(2) ?
  Ti11 Fe121 . 6_5555 4.046(2) 4.046(2) 4.046(2) ?
  Ti11 Fe121 . 8_4555 4.046(2) 4.046(2) 4.046(2) ?
  Ti11 Fe121 . 8_4565 3.983(2) 3.983(2) 3.983(2) ?
  Ti11 Ti221 . 6_5545 5.590(3) 5.590(3) 5.590(3) ?
  Ti11 Ti221 . 6_5555 5.628(3) 5.628(3) 5.628(3) ?
  Ti11 Ti221 . 6_6545 5.605(3) 5.605(3) 5.605(3) ?
  Ti11 Ti221 . 6_6555 5.643(3) 5.643(3) 5.643(3) ?
  Ti11 Ti221 . 8_3555 5.643(3) 5.643(3) 5.643(3) ?
  Ti11 Ti221 . 8_3565 5.605(3) 5.605(3) 5.605(3) ?
  Ti11 Ti221 . 8_4555 5.628(3) 5.628(3) 5.628(3) ?
  Ti11 Ti221 . 8_4565 5.590(3) 5.590(3) 5.590(3) ?
  Ti11 Fe221 . 6_5545 5.590(3) 5.590(3) 5.590(3) ?
  Ti11 Fe221 . 6_5555 5.628(3) 5.628(3) 5.628(3) ?
  Ti11 Fe221 . 6_6545 5.605(3) 5.605(3) 5.605(3) ?
  Ti11 Fe221 . 6_6555 5.643(3) 5.643(3) 5.643(3) ?
  Ti11 Fe221 . 8_3555 5.643(3) 5.643(3) 5.643(3) ?
  Ti11 Fe221 . 8_3565 5.605(3) 5.605(3) 5.605(3) ?
  Ti11 Fe221 . 8_4555 5.628(3) 5.628(3) 5.628(3) ?
  Ti11 Fe221 . 8_4565 5.590(3) 5.590(3) 5.590(3) ?
  Ti11 O11 . 6_5545 4.571(18) 4.571(18) 4.571(18) ?
  Ti11 O11 . 6_5555 4.615(18) 4.615(18) 4.615(18) ?
  Ti11 O11 . 6_5645 4.084(17) 4.084(17) 4.084(17) ?
  Ti11 O11 . 6_5655 4.270(17) 4.270(17) 4.270(17) ?
  Ti11 O11 . 8_4455 4.270(17) 4.270(17) 4.270(17) ?
  Ti11 O11 . 8_4465 4.084(17) 4.084(17) 4.084(17) ?
  Ti11 O11 . 8_4555 4.615(18) 4.615(18) 4.615(18) ?
  Ti11 O11 . 8_4565 4.571(18) 4.571(18) 4.571(18) ?
  Ti11 O21 . 6_4545 5.82(3) 5.82(3) 5.82(3) ?
  Ti11 O21 . 6_4555 5.47(3) 5.47(3) 5.47(3) ?
  Ti11 O21 . 6_4655 5.97(2) 5.97(2) 5.97(2) ?
  Ti11 O21 . 6_5555 5.95(3) 5.95(3) 5.95(3) ?
  Ti11 O21 . 6_5645 5.02(2) 5.02(2) 5.02(2) ?
  Ti11 O21 . 6_5655 3.92(2) 3.92(2) 3.92(2) ?
  Ti11 O21 . 8_4455 3.92(2) 3.92(2) 3.92(2) ?
  Ti11 O21 . 8_4465 5.02(2) 5.02(2) 5.02(2) ?
  Ti11 O21 . 8_4555 5.95(3) 5.95(3) 5.95(3) ?
  Ti11 O21 . 8_5455 5.97(2) 5.97(2) 5.97(2) ?
  Ti11 O21 . 8_5555 5.47(3) 5.47(3) 5.47(3) ?
  Ti11 O21 . 8_5565 5.82(3) 5.82(3) 5.82(3) ?
  Ti11 O31 . 6_6545 4.89(3) 4.89(3) 4.89(3) ?
  Ti11 O31 . 6_6555 3.87(3) 3.87(3) 3.87(3) ?
  Ti11 O31 . 6_6645 4.69(2) 4.69(2) 4.69(2) ?
  Ti11 O31 . 6_6655 3.12(2) 3.12(2) 3.12(2) ?
  Ti11 O31 . 8_3455 3.12(2) 3.12(2) 3.12(2) ?
  Ti11 O31 . 8_3465 4.69(2) 4.69(2) 4.69(2) ?
  Ti11 O31 . 8_3555 3.87(3) 3.87(3) 3.87(3) ?
  Ti11 O31 . 8_3565 4.89(3) 4.89(3) 4.89(3) ?
  Fe11 Fe11 . 1_5545 5.5366 5.5366 5.5366 ?
  Fe11 Fe11 . 1_5565 5.5366 5.5366 5.5366 ?
  Fe11 Ti13 . 1_5655 5.5524(3) 5.5524(3) 5.5524(3) ?
  Fe11 Ti13 . 7_5465 5.5524(3) 5.5524(3) 5.5524(3) ?
  Fe11 Fe13 . 1_5655 5.5524(3) 5.5524(3) 5.5524(3) ?
  Fe11 Fe13 . 7_5465 5.5524(3) 5.5524(3) 5.5524(3) ?
  Fe11 Ti21 . 1_4555 3.9136 3.9136 3.9136 ?
  Fe11 Ti21 . . 3.9136 3.9136 3.9136 ?
  Fe11 Fe21 . 1_4555 3.9136 3.9136 3.9136 ?
  Fe11 Fe21 . . 3.9136 3.9136 3.9136 ?
  Fe11 O1 . 1_5455 5.739(8) 5.739(8) 5.739(8) ?
  Fe11 O1 . 1_5545 5.5659(15) 5.5659(15) 5.5659(15) ?
  Fe11 O1 . . 1.9826(15) 1.9826(15) 1.9826(15) ?
  Fe11 O1 . 1_5655 5.651(9) 5.651(9) 5.651(9) ?
  Fe11 O1 . 1_6555 5.8806(15) 5.8806(15) 5.8806(15) ?
  Fe11 O1 . 7_4565 5.8806(15) 5.8806(15) 5.8806(15) ?
  Fe11 O1 . 7_5465 5.651(9) 5.651(9) 5.651(9) ?
  Fe11 O1 . 7_5565 1.9826(15) 1.9826(15) 1.9826(15) ?
  Fe11 O1 . 7_5575 5.5659(15) 5.5659(15) 5.5659(15) ?
  Fe11 O1 . 7_5665 5.739(8) 5.739(8) 5.739(8) ?
  Fe11 O2 . 1_5455 4.558(13) 4.558(13) 4.558(13) ?
  Fe11 O2 . 1_5465 5.858(13) 5.858(13) 5.858(13) ?
  Fe11 O2 . . 1.969(8) 1.969(8) 1.969(8) ?
  Fe11 O2 . 1_5565 4.174(8) 4.174(8) 4.174(8) ?
  Fe11 O2 . 7_5555 4.174(8) 4.174(8) 4.174(8) ?
  Fe11 O2 . 7_5565 1.969(8) 1.969(8) 1.969(8) ?
  Fe11 O2 . 7_5655 5.858(13) 5.858(13) 5.858(13) ?
  Fe11 O2 . 7_5665 4.558(13) 4.558(13) 4.558(13) ?
  Fe11 O3 . 1_4455 5.806(13) 5.806(13) 5.806(13) ?
  Fe11 O3 . 1_4555 4.137(6) 4.137(6) 4.137(6) ?
  Fe11 O3 . 1_4565 5.521(6) 5.521(6) 5.521(6) ?
  Fe11 O3 . . 4.610(6) 4.610(6) 4.610(6) ?
  Fe11 O3 . 1_5565 5.883(6) 5.883(6) 5.883(6) ?
  Fe11 O3 . 7_5555 5.883(6) 5.883(6) 5.883(6) ?
  Fe11 O3 . 7_5565 4.610(6) 4.610(6) 4.610(6) ?
  Fe11 O3 . 7_6555 5.521(6) 5.521(6) 5.521(6) ?
  Fe11 O3 . 7_6565 4.137(6) 4.137(6) 4.137(6) ?
  Fe11 O3 . 7_6665 5.806(13) 5.806(13) 5.806(13) ?
  Fe11 La11 . 6_5555 3.2152(10) 3.2152(10) 3.2152(10) ?
  Fe11 La11 . 6_5655 3.4389(9) 3.4389(9) 3.4389(9) ?
  Fe11 La11 . 8_4455 3.4390(9) 3.4390(9) 3.4390(9) ?
  Fe11 La11 . 8_4555 3.2152(10) 3.2152(10) 3.2152(10) ?
  Fe11 Ti121 . 6_5545 3.983(2) 3.983(2) 3.983(2) ?
  Fe11 Ti121 . 6_5555 4.046(2) 4.046(2) 4.046(2) ?
  Fe11 Ti121 . 8_4555 4.046(2) 4.046(2) 4.046(2) ?
  Fe11 Ti121 . 8_4565 3.983(2) 3.983(2) 3.983(2) ?
  Fe11 Fe121 . 6_5545 3.983(2) 3.983(2) 3.983(2) ?
  Fe11 Fe121 . 6_5555 4.046(2) 4.046(2) 4.046(2) ?
  Fe11 Fe121 . 8_4555 4.046(2) 4.046(2) 4.046(2) ?
  Fe11 Fe121 . 8_4565 3.983(2) 3.983(2) 3.983(2) ?
  Fe11 Ti221 . 6_5545 5.590(3) 5.590(3) 5.590(3) ?
  Fe11 Ti221 . 6_5555 5.628(3) 5.628(3) 5.628(3) ?
  Fe11 Ti221 . 6_6545 5.605(3) 5.605(3) 5.605(3) ?
  Fe11 Ti221 . 6_6555 5.643(3) 5.643(3) 5.643(3) ?
  Fe11 Ti221 . 8_3555 5.643(3) 5.643(3) 5.643(3) ?
  Fe11 Ti221 . 8_3565 5.605(3) 5.605(3) 5.605(3) ?
  Fe11 Ti221 . 8_4555 5.628(3) 5.628(3) 5.628(3) ?
  Fe11 Ti221 . 8_4565 5.590(3) 5.590(3) 5.590(3) ?
  Fe11 Fe221 . 6_5545 5.590(3) 5.590(3) 5.590(3) ?
  Fe11 Fe221 . 6_5555 5.628(3) 5.628(3) 5.628(3) ?
  Fe11 Fe221 . 6_6545 5.605(3) 5.605(3) 5.605(3) ?
  Fe11 Fe221 . 6_6555 5.643(3) 5.643(3) 5.643(3) ?
  Fe11 Fe221 . 8_3555 5.643(3) 5.643(3) 5.643(3) ?
  Fe11 Fe221 . 8_3565 5.605(3) 5.605(3) 5.605(3) ?
  Fe11 Fe221 . 8_4555 5.628(3) 5.628(3) 5.628(3) ?
  Fe11 Fe221 . 8_4565 5.590(3) 5.590(3) 5.590(3) ?
  Fe11 O11 . 6_5545 4.571(18) 4.571(18) 4.571(18) ?
  Fe11 O11 . 6_5555 4.615(18) 4.615(18) 4.615(18) ?
  Fe11 O11 . 6_5645 4.084(17) 4.084(17) 4.084(17) ?
  Fe11 O11 . 6_5655 4.270(17) 4.270(17) 4.270(17) ?
  Fe11 O11 . 8_4455 4.270(17) 4.270(17) 4.270(17) ?
  Fe11 O11 . 8_4465 4.084(17) 4.084(17) 4.084(17) ?
  Fe11 O11 . 8_4555 4.615(18) 4.615(18) 4.615(18) ?
  Fe11 O11 . 8_4565 4.571(18) 4.571(18) 4.571(18) ?
  Fe11 O21 . 6_4545 5.82(3) 5.82(3) 5.82(3) ?
  Fe11 O21 . 6_4555 5.47(3) 5.47(3) 5.47(3) ?
  Fe11 O21 . 6_4655 5.97(2) 5.97(2) 5.97(2) ?
  Fe11 O21 . 6_5555 5.95(3) 5.95(3) 5.95(3) ?
  Fe11 O21 . 6_5645 5.02(2) 5.02(2) 5.02(2) ?
  Fe11 O21 . 6_5655 3.92(2) 3.92(2) 3.92(2) ?
  Fe11 O21 . 8_4455 3.92(2) 3.92(2) 3.92(2) ?
  Fe11 O21 . 8_4465 5.02(2) 5.02(2) 5.02(2) ?
  Fe11 O21 . 8_4555 5.95(3) 5.95(3) 5.95(3) ?
  Fe11 O21 . 8_5455 5.97(2) 5.97(2) 5.97(2) ?
  Fe11 O21 . 8_5555 5.47(3) 5.47(3) 5.47(3) ?
  Fe11 O21 . 8_5565 5.82(3) 5.82(3) 5.82(3) ?
  Fe11 O31 . 6_6545 4.89(3) 4.89(3) 4.89(3) ?
  Fe11 O31 . 6_6555 3.87(3) 3.87(3) 3.87(3) ?
  Fe11 O31 . 6_6645 4.69(2) 4.69(2) 4.69(2) ?
  Fe11 O31 . 6_6655 3.12(2) 3.12(2) 3.12(2) ?
  Fe11 O31 . 8_3455 3.12(2) 3.12(2) 3.12(2) ?
  Fe11 O31 . 8_3465 4.69(2) 4.69(2) 4.69(2) ?
  Fe11 O31 . 8_3555 3.87(3) 3.87(3) 3.87(3) ?
  Fe11 O31 . 8_3565 4.89(3) 4.89(3) 4.89(3) ?
  Ti13 Ti13 . 1_5545 5.5366(5) 5.5366(5) 5.5366(5) ?
  Ti13 Ti13 . 1_5565 5.5366(5) 5.5366(5) 5.5366(5) ?
  Ti13 Ti13 . 2_5645 5.6643(5) 5.6643(5) 5.6643(5) ?
  Ti13 Ti13 . 2_5655 5.6643(5) 5.6643(5) 5.6643(5) ?
  Ti13 Fe13 . 1_5545 5.5366(5) 5.5366(5) 5.5366(5) ?
  Ti13 Fe13 . . 0 0 0 ?
  Ti13 Fe13 . 1_5565 5.5366(5) 5.5366(5) 5.5366(5) ?
  Ti13 Fe13 . 2_5645 5.6643(5) 5.6643(5) 5.6643(5) ?
  Ti13 Fe13 . 2_5655 5.6643(5) 5.6643(5) 5.6643(5) ?
  Ti13 Ti23 . 1_4555 3.8819(8) 3.8819(8) 3.8819(8) ?
  Ti13 Ti23 . . 3.9460(8) 3.9460(8) 3.9460(8) ?
  Ti13 Ti23 . 2_6645 5.6581(5) 5.6581(5) 5.6581(5) ?
  Ti13 Ti23 . 2_6655 5.6373(5) 5.6373(5) 5.6373(5) ?
  Ti13 Fe23 . 1_4555 3.8819(8) 3.8819(8) 3.8819(8) ?
  Ti13 Fe23 . . 3.9460(8) 3.9460(8) 3.9460(8) ?
  Ti13 Fe23 . 2_6645 5.6581(5) 5.6581(5) 5.6581(5) ?
  Ti13 Fe23 . 2_6655 5.6373(5) 5.6373(5) 5.6373(5) ?
  Ti13 O1 . 1_5455 5.8891(14) 5.8891(14) 5.8891(14) ?
  Ti13 O1 . 1_5545 5.484(8) 5.484(8) 5.484(8) ?
  Ti13 O1 . . 1.985(10) 1.985(10) 1.985(10) ?
  Ti13 O1 . 1_6555 5.920(10) 5.920(10) 5.920(10) ?
  Ti13 O1 . 2_5645 5.354(8) 5.354(8) 5.354(8) ?
  Ti13 O1 . 2_5655 5.761(8) 5.761(8) 5.761(8) ?
  Ti13 O1 . 7_4565 5.850(10) 5.850(10) 5.850(10) ?
  Ti13 O1 . 7_5465 5.9024(14) 5.9024(14) 5.9024(14) ?
  Ti13 O1 . 7_5565 2.005(10) 2.005(10) 2.005(10) ?
  Ti13 O1 . 7_5575 5.666(7) 5.666(7) 5.666(7) ?
  Ti13 O2 . 1_5455 4.564(8) 4.564(8) 4.564(8) ?
  Ti13 O2 . . 1.832(15) 1.832(15) 1.832(15) ?
  Ti13 O2 . 1_5565 4.226(15) 4.226(15) 4.226(15) ?
  Ti13 O2 . 2_5645 5.750(15) 5.750(15) 5.750(15) ?
  Ti13 O2 . 2_5655 4.113(15) 4.113(15) 4.113(15) ?
  Ti13 O2 . 7_5555 4.005(13) 4.005(13) 4.005(13) ?
  Ti13 O2 . 7_5565 2.206(13) 2.206(13) 2.206(13) ?
  Ti13 O3 . 1_4455 5.845(6) 5.845(6) 5.845(6) ?
  Ti13 O3 . 1_4555 4.167(15) 4.167(15) 4.167(15) ?
  Ti13 O3 . 1_4565 5.580(14) 5.580(14) 5.580(14) ?
  Ti13 O3 . . 4.458(15) 4.458(15) 4.458(15) ?
  Ti13 O3 . 1_5565 5.801(14) 5.801(14) 5.801(14) ?
  Ti13 O3 . 2_6645 5.885(15) 5.885(15) 5.885(15) ?
  Ti13 O3 . 2_6655 4.214(15) 4.214(15) 4.214(15) ?
  Ti13 O3 . 7_5555 5.798(13) 5.798(13) 5.798(13) ?
  Ti13 O3 . 7_5565 4.783(13) 4.783(13) 4.783(13) ?
  Ti13 O3 . 7_6555 5.314(13) 5.314(13) 5.314(13) ?
  Ti13 O3 . 7_6565 4.184(13) 4.184(13) 4.184(13) ?
  Ti13 La11 . 6_5555 3.3683(10) 3.3683(10) 3.3683(10) ?
  Ti13 La11 . 8_4455 3.5726(10) 3.5726(10) 3.5726(10) ?
  Ti13 Ti121 . 8_4455 3.707(2) 3.707(2) 3.707(2) ?
  Ti13 Ti121 . 8_4465 3.948(2) 3.948(2) 3.948(2) ?
  Ti13 Fe121 . 8_4455 3.707(2) 3.707(2) 3.707(2) ?
  Ti13 Fe121 . 8_4465 3.948(2) 3.948(2) 3.948(2) ?
  Ti13 Ti221 . 8_3455 5.367(3) 5.367(3) 5.367(3) ?
  Ti13 Ti221 . 8_3465 5.545(3) 5.545(3) 5.545(3) ?
  Ti13 Ti221 . 8_4455 5.388(3) 5.388(3) 5.388(3) ?
  Ti13 Ti221 . 8_4465 5.564(3) 5.564(3) 5.564(3) ?
  Ti13 Fe221 . 8_3455 5.367(3) 5.367(3) 5.367(3) ?
  Ti13 Fe221 . 8_3465 5.545(3) 5.545(3) 5.545(3) ?
  Ti13 Fe221 . 8_4455 5.388(3) 5.388(3) 5.388(3) ?
  Ti13 Fe221 . 8_4465 5.564(3) 5.564(3) 5.564(3) ?
  Ti13 O11 . 6_5545 4.385(17) 4.385(17) 4.385(17) ?
  Ti13 O11 . 6_5555 4.810(17) 4.810(17) 4.810(17) ?
  Ti13 O11 . 8_4455 4.040(18) 4.040(18) 4.040(18) ?
  Ti13 O11 . 8_4465 4.275(17) 4.275(17) 4.275(17) ?
  Ti13 O21 . 5_4555 4.968(11) 4.968(11) 4.968(11) ?
  Ti13 O21 . 5_5555 5.034(11) 5.034(11) 5.034(11) ?
  Ti13 O21 . 6_5545 5.46(2) 5.46(2) 5.46(2) ?
  Ti13 O21 . 6_5555 4.73(2) 4.73(2) 4.73(2) ?
  Ti13 O21 . 6_5645 4.393(11) 4.393(11) 4.393(11) ?
  Ti13 O21 . 6_5655 3.160(11) 3.160(11) 3.160(11) ?
  Ti13 O21 . 8_4455 5.24(3) 5.24(3) 5.24(3) ?
  Ti13 O21 . 8_4465 5.82(3) 5.82(3) 5.82(3) ?
  Ti13 O21 . 8_5455 4.73(3) 4.73(3) 4.73(3) ?
  Ti13 O21 . 8_5465 5.36(3) 5.36(3) 5.36(3) ?
  Ti13 O31 . 5_3555 5.134(11) 5.134(11) 5.134(11) ?
  Ti13 O31 . 5_4555 4.955(11) 4.955(11) 4.955(11) ?
  Ti13 O31 . 6_6545 5.16(2) 5.16(2) 5.16(2) ?
  Ti13 O31 . 6_6555 4.08(2) 4.08(2) 4.08(2) ?
  Ti13 O31 . 6_6645 4.604(11) 4.604(11) 4.604(11) ?
  Ti13 O31 . 6_6655 3.150(11) 3.150(11) 3.150(11) ?
  Ti13 O31 . 8_3455 2.84(3) 2.84(3) 2.84(3) ?
  Ti13 O31 . 8_3465 4.39(3) 4.39(3) 4.39(3) ?
  Fe13 Fe13 . 1_5545 5.5366(5) 5.5366(5) 5.5366(5) ?
  Fe13 Fe13 . 1_5565 5.5366(5) 5.5366(5) 5.5366(5) ?
  Fe13 Fe13 . 2_5645 5.6643(5) 5.6643(5) 5.6643(5) ?
  Fe13 Fe13 . 2_5655 5.6643(5) 5.6643(5) 5.6643(5) ?
  Fe13 Ti23 . 1_4555 3.8819(8) 3.8819(8) 3.8819(8) ?
  Fe13 Ti23 . . 3.9460(8) 3.9460(8) 3.9460(8) ?
  Fe13 Ti23 . 2_6645 5.6581(5) 5.6581(5) 5.6581(5) ?
  Fe13 Ti23 . 2_6655 5.6373(5) 5.6373(5) 5.6373(5) ?
  Fe13 Fe23 . 1_4555 3.8819(8) 3.8819(8) 3.8819(8) ?
  Fe13 Fe23 . . 3.9460(8) 3.9460(8) 3.9460(8) ?
  Fe13 Fe23 . 2_6645 5.6581(5) 5.6581(5) 5.6581(5) ?
  Fe13 Fe23 . 2_6655 5.6373(5) 5.6373(5) 5.6373(5) ?
  Fe13 O1 . 1_5455 5.8891(14) 5.8891(14) 5.8891(14) ?
  Fe13 O1 . 1_5545 5.484(8) 5.484(8) 5.484(8) ?
  Fe13 O1 . . 1.985(10) 1.985(10) 1.985(10) ?
  Fe13 O1 . 1_6555 5.920(10) 5.920(10) 5.920(10) ?
  Fe13 O1 . 2_5645 5.354(8) 5.354(8) 5.354(8) ?
  Fe13 O1 . 2_5655 5.761(8) 5.761(8) 5.761(8) ?
  Fe13 O1 . 7_4565 5.850(10) 5.850(10) 5.850(10) ?
  Fe13 O1 . 7_5465 5.9024(14) 5.9024(14) 5.9024(14) ?
  Fe13 O1 . 7_5565 2.005(10) 2.005(10) 2.005(10) ?
  Fe13 O1 . 7_5575 5.666(7) 5.666(7) 5.666(7) ?
  Fe13 O2 . 1_5455 4.564(8) 4.564(8) 4.564(8) ?
  Fe13 O2 . . 1.832(15) 1.832(15) 1.832(15) ?
  Fe13 O2 . 1_5565 4.226(15) 4.226(15) 4.226(15) ?
  Fe13 O2 . 2_5645 5.750(15) 5.750(15) 5.750(15) ?
  Fe13 O2 . 2_5655 4.113(15) 4.113(15) 4.113(15) ?
  Fe13 O2 . 7_5555 4.005(13) 4.005(13) 4.005(13) ?
  Fe13 O2 . 7_5565 2.206(13) 2.206(13) 2.206(13) ?
  Fe13 O3 . 1_4455 5.845(6) 5.845(6) 5.845(6) ?
  Fe13 O3 . 1_4555 4.167(15) 4.167(15) 4.167(15) ?
  Fe13 O3 . 1_4565 5.580(14) 5.580(14) 5.580(14) ?
  Fe13 O3 . . 4.458(15) 4.458(15) 4.458(15) ?
  Fe13 O3 . 1_5565 5.801(14) 5.801(14) 5.801(14) ?
  Fe13 O3 . 2_6645 5.885(15) 5.885(15) 5.885(15) ?
  Fe13 O3 . 2_6655 4.214(15) 4.214(15) 4.214(15) ?
  Fe13 O3 . 7_5555 5.798(13) 5.798(13) 5.798(13) ?
  Fe13 O3 . 7_5565 4.783(13) 4.783(13) 4.783(13) ?
  Fe13 O3 . 7_6555 5.314(13) 5.314(13) 5.314(13) ?
  Fe13 O3 . 7_6565 4.184(13) 4.184(13) 4.184(13) ?
  Fe13 La11 . 6_5555 3.3683(10) 3.3683(10) 3.3683(10) ?
  Fe13 La11 . 8_4455 3.5726(10) 3.5726(10) 3.5726(10) ?
  Fe13 Ti121 . 8_4455 3.707(2) 3.707(2) 3.707(2) ?
  Fe13 Ti121 . 8_4465 3.948(2) 3.948(2) 3.948(2) ?
  Fe13 Fe121 . 8_4455 3.707(2) 3.707(2) 3.707(2) ?
  Fe13 Fe121 . 8_4465 3.948(2) 3.948(2) 3.948(2) ?
  Fe13 Ti221 . 8_3455 5.367(3) 5.367(3) 5.367(3) ?
  Fe13 Ti221 . 8_3465 5.545(3) 5.545(3) 5.545(3) ?
  Fe13 Ti221 . 8_4455 5.388(3) 5.388(3) 5.388(3) ?
  Fe13 Ti221 . 8_4465 5.564(3) 5.564(3) 5.564(3) ?
  Fe13 Fe221 . 8_3455 5.367(3) 5.367(3) 5.367(3) ?
  Fe13 Fe221 . 8_3465 5.545(3) 5.545(3) 5.545(3) ?
  Fe13 Fe221 . 8_4455 5.388(3) 5.388(3) 5.388(3) ?
  Fe13 Fe221 . 8_4465 5.564(3) 5.564(3) 5.564(3) ?
  Fe13 O11 . 6_5545 4.385(17) 4.385(17) 4.385(17) ?
  Fe13 O11 . 6_5555 4.810(17) 4.810(17) 4.810(17) ?
  Fe13 O11 . 8_4455 4.040(18) 4.040(18) 4.040(18) ?
  Fe13 O11 . 8_4465 4.275(17) 4.275(17) 4.275(17) ?
  Fe13 O21 . 5_4555 4.968(11) 4.968(11) 4.968(11) ?
  Fe13 O21 . 5_5555 5.034(11) 5.034(11) 5.034(11) ?
  Fe13 O21 . 6_5545 5.46(2) 5.46(2) 5.46(2) ?
  Fe13 O21 . 6_5555 4.73(2) 4.73(2) 4.73(2) ?
  Fe13 O21 . 6_5645 4.393(11) 4.393(11) 4.393(11) ?
  Fe13 O21 . 6_5655 3.160(11) 3.160(11) 3.160(11) ?
  Fe13 O21 . 8_4455 5.24(3) 5.24(3) 5.24(3) ?
  Fe13 O21 . 8_4465 5.82(3) 5.82(3) 5.82(3) ?
  Fe13 O21 . 8_5455 4.73(3) 4.73(3) 4.73(3) ?
  Fe13 O21 . 8_5465 5.36(3) 5.36(3) 5.36(3) ?
  Fe13 O31 . 5_3555 5.134(11) 5.134(11) 5.134(11) ?
  Fe13 O31 . 5_4555 4.955(11) 4.955(11) 4.955(11) ?
  Fe13 O31 . 6_6545 5.16(2) 5.16(2) 5.16(2) ?
  Fe13 O31 . 6_6555 4.08(2) 4.08(2) 4.08(2) ?
  Fe13 O31 . 6_6645 4.604(11) 4.604(11) 4.604(11) ?
  Fe13 O31 . 6_6655 3.150(11) 3.150(11) 3.150(11) ?
  Fe13 O31 . 8_3455 2.84(3) 2.84(3) 2.84(3) ?
  Fe13 O31 . 8_3465 4.39(3) 4.39(3) 4.39(3) ?
  Ti21 Ti21 . 1_5545 5.5366 5.5366 5.5366 ?
  Ti21 Ti21 . 1_5565 5.5366 5.5366 5.5366 ?
  Ti21 Fe21 . 1_5545 5.5366 5.5366 5.5366 ?
  Ti21 Fe21 . . 0 0 0 ?
  Ti21 Fe21 . 1_5565 5.5366 5.5366 5.5366 ?
  Ti21 Ti23 . 1_5655 5.5986(3) 5.5986(3) 5.5986(3) ?
  Ti21 Ti23 . 7_6465 5.5986(3) 5.5986(3) 5.5986(3) ?
  Ti21 Fe23 . 1_5655 5.5986(3) 5.5986(3) 5.5986(3) ?
  Ti21 Fe23 . 7_6465 5.5986(3) 5.5986(3) 5.5986(3) ?
  Ti21 O1 . . 5.8782(15) 5.8782(15) 5.8782(15) ?
  Ti21 O1 . 1_6455 5.737(8) 5.737(8) 5.737(8) ?
  Ti21 O1 . 1_6545 5.5667(15) 5.5667(15) 5.5667(15) ?
  Ti21 O1 . 1_6555 1.9849(15) 1.9849(15) 1.9849(15) ?
  Ti21 O1 . 1_6655 5.655(9) 5.655(9) 5.655(9) ?
  Ti21 O1 . 7_5465 5.655(9) 5.655(9) 5.655(9) ?
  Ti21 O1 . 7_5565 1.9849(15) 1.9849(15) 1.9849(15) ?
  Ti21 O1 . 7_5575 5.5667(15) 5.5667(15) 5.5667(15) ?
  Ti21 O1 . 7_5665 5.737(8) 5.737(8) 5.737(8) ?
  Ti21 O1 . 7_6565 5.8782(15) 5.8782(15) 5.8782(15) ?
  Ti21 O2 . . 4.616(7) 4.616(7) 4.616(7) ?
  Ti21 O2 . 1_5565 5.904(8) 5.904(8) 5.904(8) ?
  Ti21 O2 . 1_6455 5.770(13) 5.770(13) 5.770(13) ?
  Ti21 O2 . 1_6555 4.132(7) 4.132(7) 4.132(7) ?
  Ti21 O2 . 1_6565 5.533(8) 5.533(8) 5.533(8) ?
  Ti21 O2 . 7_5555 5.533(8) 5.533(8) 5.533(8) ?
  Ti21 O2 . 7_5565 4.132(7) 4.132(7) 4.132(7) ?
  Ti21 O2 . 7_5665 5.770(13) 5.770(13) 5.770(13) ?
  Ti21 O2 . 7_6555 5.904(8) 5.904(8) 5.904(8) ?
  Ti21 O2 . 7_6565 4.616(7) 4.616(7) 4.616(7) ?
  Ti21 O3 . 1_5455 4.612(13) 4.612(13) 4.612(13) ?
  Ti21 O3 . 1_5465 5.862(13) 5.862(13) 5.862(13) ?
  Ti21 O3 . . 1.966(6) 1.966(6) 1.966(6) ?
  Ti21 O3 . 1_5565 4.151(6) 4.151(6) 4.151(6) ?
  Ti21 O3 . 7_6555 4.151(6) 4.151(6) 4.151(6) ?
  Ti21 O3 . 7_6565 1.966(6) 1.966(6) 1.966(6) ?
  Ti21 O3 . 7_6655 5.862(13) 5.862(13) 5.862(13) ?
  Ti21 O3 . 7_6665 4.612(13) 4.612(13) 4.612(13) ?
  Ti21 La11 . 6_5555 3.2151(10) 3.2151(10) 3.2151(10) ?
  Ti21 La11 . 6_5655 3.4418(9) 3.4418(9) 3.4418(9) ?
  Ti21 La11 . 8_5455 3.4418(9) 3.4418(9) 3.4418(9) ?
  Ti21 La11 . 8_5555 3.2151(10) 3.2151(10) 3.2151(10) ?
  Ti21 Ti121 . 6_5545 5.588(3) 5.588(3) 5.588(3) ?
  Ti21 Ti121 . 6_5555 5.633(3) 5.633(3) 5.633(3) ?
  Ti21 Ti121 . 6_6545 5.581(3) 5.581(3) 5.581(3) ?
  Ti21 Ti121 . 6_6555 5.626(3) 5.626(3) 5.626(3) ?
  Ti21 Ti121 . 8_4555 5.626(3) 5.626(3) 5.626(3) ?
  Ti21 Ti121 . 8_4565 5.581(3) 5.581(3) 5.581(3) ?
  Ti21 Ti121 . 8_5555 5.633(3) 5.633(3) 5.633(3) ?
  Ti21 Ti121 . 8_5565 5.588(3) 5.588(3) 5.588(3) ?
  Ti21 Fe121 . 6_5545 5.588(3) 5.588(3) 5.588(3) ?
  Ti21 Fe121 . 6_5555 5.633(3) 5.633(3) 5.633(3) ?
  Ti21 Fe121 . 6_6545 5.581(3) 5.581(3) 5.581(3) ?
  Ti21 Fe121 . 6_6555 5.626(3) 5.626(3) 5.626(3) ?
  Ti21 Fe121 . 8_4555 5.626(3) 5.626(3) 5.626(3) ?
  Ti21 Fe121 . 8_4565 5.581(3) 5.581(3) 5.581(3) ?
  Ti21 Fe121 . 8_5555 5.633(3) 5.633(3) 5.633(3) ?
  Ti21 Fe121 . 8_5565 5.588(3) 5.588(3) 5.588(3) ?
  Ti21 Ti221 . 6_6545 4.002(2) 4.002(2) 4.002(2) ?
  Ti21 Ti221 . 6_6555 4.055(2) 4.055(2) 4.055(2) ?
  Ti21 Ti221 . 8_4555 4.055(2) 4.055(2) 4.055(2) ?
  Ti21 Ti221 . 8_4565 4.002(2) 4.002(2) 4.002(2) ?
  Ti21 Fe221 . 6_6545 4.002(2) 4.002(2) 4.002(2) ?
  Ti21 Fe221 . 6_6555 4.055(2) 4.055(2) 4.055(2) ?
  Ti21 Fe221 . 8_4555 4.055(2) 4.055(2) 4.055(2) ?
  Ti21 Fe221 . 8_4565 4.002(2) 4.002(2) 4.002(2) ?
  Ti21 O11 . 6_5545 4.587(18) 4.587(18) 4.587(18) ?
  Ti21 O11 . 6_5555 4.631(18) 4.631(18) 4.631(18) ?
  Ti21 O11 . 6_5645 4.106(17) 4.106(17) 4.106(17) ?
  Ti21 O11 . 6_5655 4.291(17) 4.291(17) 4.291(17) ?
  Ti21 O11 . 8_5455 4.291(17) 4.291(17) 4.291(17) ?
  Ti21 O11 . 8_5465 4.106(17) 4.106(17) 4.106(17) ?
  Ti21 O11 . 8_5555 4.631(18) 4.631(18) 4.631(18) ?
  Ti21 O11 . 8_5565 4.587(18) 4.587(18) 4.587(18) ?
  Ti21 O21 . 6_5545 4.62(3) 4.62(3) 4.62(3) ?
  Ti21 O21 . 6_5555 4.17(3) 4.17(3) 4.17(3) ?
  Ti21 O21 . 6_5645 4.47(2) 4.47(2) 4.47(2) ?
  Ti21 O21 . 6_5655 3.19(2) 3.19(2) 3.19(2) ?
  Ti21 O21 . 8_5455 3.19(2) 3.19(2) 3.19(2) ?
  Ti21 O21 . 8_5465 4.47(2) 4.47(2) 4.47(2) ?
  Ti21 O21 . 8_5555 4.17(3) 4.17(3) 4.17(3) ?
  Ti21 O21 . 8_5565 4.62(3) 4.62(3) 4.62(3) ?
  Ti21 O31 . 6_6555 5.66(3) 5.66(3) 5.66(3) ?
  Ti21 O31 . 6_6645 5.12(2) 5.12(2) 5.12(2) ?
  Ti21 O31 . 6_6655 3.73(2) 3.73(2) 3.73(2) ?
  Ti21 O31 . 6_7555 5.35(3) 5.35(3) 5.35(3) ?
  Ti21 O31 . 8_3555 5.35(3) 5.35(3) 5.35(3) ?
  Ti21 O31 . 8_4455 3.73(2) 3.73(2) 3.73(2) ?
  Ti21 O31 . 8_4465 5.12(2) 5.12(2) 5.12(2) ?
  Ti21 O31 . 8_4555 5.66(3) 5.66(3) 5.66(3) ?
  Fe21 Fe21 . 1_5545 5.5366 5.5366 5.5366 ?
  Fe21 Fe21 . 1_5565 5.5366 5.5366 5.5366 ?
  Fe21 Ti23 . 1_5655 5.5986(3) 5.5986(3) 5.5986(3) ?
  Fe21 Ti23 . 7_6465 5.5986(3) 5.5986(3) 5.5986(3) ?
  Fe21 Fe23 . 1_5655 5.5986(3) 5.5986(3) 5.5986(3) ?
  Fe21 Fe23 . 7_6465 5.5986(3) 5.5986(3) 5.5986(3) ?
  Fe21 O1 . . 5.8782(15) 5.8782(15) 5.8782(15) ?
  Fe21 O1 . 1_6455 5.737(8) 5.737(8) 5.737(8) ?
  Fe21 O1 . 1_6545 5.5667(15) 5.5667(15) 5.5667(15) ?
  Fe21 O1 . 1_6555 1.9849(15) 1.9849(15) 1.9849(15) ?
  Fe21 O1 . 1_6655 5.655(9) 5.655(9) 5.655(9) ?
  Fe21 O1 . 7_5465 5.655(9) 5.655(9) 5.655(9) ?
  Fe21 O1 . 7_5565 1.9849(15) 1.9849(15) 1.9849(15) ?
  Fe21 O1 . 7_5575 5.5667(15) 5.5667(15) 5.5667(15) ?
  Fe21 O1 . 7_5665 5.737(8) 5.737(8) 5.737(8) ?
  Fe21 O1 . 7_6565 5.8782(15) 5.8782(15) 5.8782(15) ?
  Fe21 O2 . . 4.616(7) 4.616(7) 4.616(7) ?
  Fe21 O2 . 1_5565 5.904(8) 5.904(8) 5.904(8) ?
  Fe21 O2 . 1_6455 5.770(13) 5.770(13) 5.770(13) ?
  Fe21 O2 . 1_6555 4.132(7) 4.132(7) 4.132(7) ?
  Fe21 O2 . 1_6565 5.533(8) 5.533(8) 5.533(8) ?
  Fe21 O2 . 7_5555 5.533(8) 5.533(8) 5.533(8) ?
  Fe21 O2 . 7_5565 4.132(7) 4.132(7) 4.132(7) ?
  Fe21 O2 . 7_5665 5.770(13) 5.770(13) 5.770(13) ?
  Fe21 O2 . 7_6555 5.904(8) 5.904(8) 5.904(8) ?
  Fe21 O2 . 7_6565 4.616(7) 4.616(7) 4.616(7) ?
  Fe21 O3 . 1_5455 4.612(13) 4.612(13) 4.612(13) ?
  Fe21 O3 . 1_5465 5.862(13) 5.862(13) 5.862(13) ?
  Fe21 O3 . . 1.966(6) 1.966(6) 1.966(6) ?
  Fe21 O3 . 1_5565 4.151(6) 4.151(6) 4.151(6) ?
  Fe21 O3 . 7_6555 4.151(6) 4.151(6) 4.151(6) ?
  Fe21 O3 . 7_6565 1.966(6) 1.966(6) 1.966(6) ?
  Fe21 O3 . 7_6655 5.862(13) 5.862(13) 5.862(13) ?
  Fe21 O3 . 7_6665 4.612(13) 4.612(13) 4.612(13) ?
  Fe21 La11 . 6_5555 3.2151(10) 3.2151(10) 3.2151(10) ?
  Fe21 La11 . 6_5655 3.4418(9) 3.4418(9) 3.4418(9) ?
  Fe21 La11 . 8_5455 3.4418(9) 3.4418(9) 3.4418(9) ?
  Fe21 La11 . 8_5555 3.2151(10) 3.2151(10) 3.2151(10) ?
  Fe21 Ti121 . 6_5545 5.588(3) 5.588(3) 5.588(3) ?
  Fe21 Ti121 . 6_5555 5.633(3) 5.633(3) 5.633(3) ?
  Fe21 Ti121 . 6_6545 5.581(3) 5.581(3) 5.581(3) ?
  Fe21 Ti121 . 6_6555 5.626(3) 5.626(3) 5.626(3) ?
  Fe21 Ti121 . 8_4555 5.626(3) 5.626(3) 5.626(3) ?
  Fe21 Ti121 . 8_4565 5.581(3) 5.581(3) 5.581(3) ?
  Fe21 Ti121 . 8_5555 5.633(3) 5.633(3) 5.633(3) ?
  Fe21 Ti121 . 8_5565 5.588(3) 5.588(3) 5.588(3) ?
  Fe21 Fe121 . 6_5545 5.588(3) 5.588(3) 5.588(3) ?
  Fe21 Fe121 . 6_5555 5.633(3) 5.633(3) 5.633(3) ?
  Fe21 Fe121 . 6_6545 5.581(3) 5.581(3) 5.581(3) ?
  Fe21 Fe121 . 6_6555 5.626(3) 5.626(3) 5.626(3) ?
  Fe21 Fe121 . 8_4555 5.626(3) 5.626(3) 5.626(3) ?
  Fe21 Fe121 . 8_4565 5.581(3) 5.581(3) 5.581(3) ?
  Fe21 Fe121 . 8_5555 5.633(3) 5.633(3) 5.633(3) ?
  Fe21 Fe121 . 8_5565 5.588(3) 5.588(3) 5.588(3) ?
  Fe21 Ti221 . 6_6545 4.002(2) 4.002(2) 4.002(2) ?
  Fe21 Ti221 . 6_6555 4.055(2) 4.055(2) 4.055(2) ?
  Fe21 Ti221 . 8_4555 4.055(2) 4.055(2) 4.055(2) ?
  Fe21 Ti221 . 8_4565 4.002(2) 4.002(2) 4.002(2) ?
  Fe21 Fe221 . 6_6545 4.002(2) 4.002(2) 4.002(2) ?
  Fe21 Fe221 . 6_6555 4.055(2) 4.055(2) 4.055(2) ?
  Fe21 Fe221 . 8_4555 4.055(2) 4.055(2) 4.055(2) ?
  Fe21 Fe221 . 8_4565 4.002(2) 4.002(2) 4.002(2) ?
  Fe21 O11 . 6_5545 4.587(18) 4.587(18) 4.587(18) ?
  Fe21 O11 . 6_5555 4.631(18) 4.631(18) 4.631(18) ?
  Fe21 O11 . 6_5645 4.106(17) 4.106(17) 4.106(17) ?
  Fe21 O11 . 6_5655 4.291(17) 4.291(17) 4.291(17) ?
  Fe21 O11 . 8_5455 4.291(17) 4.291(17) 4.291(17) ?
  Fe21 O11 . 8_5465 4.106(17) 4.106(17) 4.106(17) ?
  Fe21 O11 . 8_5555 4.631(18) 4.631(18) 4.631(18) ?
  Fe21 O11 . 8_5565 4.587(18) 4.587(18) 4.587(18) ?
  Fe21 O21 . 6_5545 4.62(3) 4.62(3) 4.62(3) ?
  Fe21 O21 . 6_5555 4.17(3) 4.17(3) 4.17(3) ?
  Fe21 O21 . 6_5645 4.47(2) 4.47(2) 4.47(2) ?
  Fe21 O21 . 6_5655 3.19(2) 3.19(2) 3.19(2) ?
  Fe21 O21 . 8_5455 3.19(2) 3.19(2) 3.19(2) ?
  Fe21 O21 . 8_5465 4.47(2) 4.47(2) 4.47(2) ?
  Fe21 O21 . 8_5555 4.17(3) 4.17(3) 4.17(3) ?
  Fe21 O21 . 8_5565 4.62(3) 4.62(3) 4.62(3) ?
  Fe21 O31 . 6_6555 5.66(3) 5.66(3) 5.66(3) ?
  Fe21 O31 . 6_6645 5.12(2) 5.12(2) 5.12(2) ?
  Fe21 O31 . 6_6655 3.73(2) 3.73(2) 3.73(2) ?
  Fe21 O31 . 6_7555 5.35(3) 5.35(3) 5.35(3) ?
  Fe21 O31 . 8_3555 5.35(3) 5.35(3) 5.35(3) ?
  Fe21 O31 . 8_4455 3.73(2) 3.73(2) 3.73(2) ?
  Fe21 O31 . 8_4465 5.12(2) 5.12(2) 5.12(2) ?
  Fe21 O31 . 8_4555 5.66(3) 5.66(3) 5.66(3) ?
  Ti23 Ti23 . 1_5545 5.5366(5) 5.5366(5) 5.5366(5) ?
  Ti23 Ti23 . 1_5565 5.5366(5) 5.5366(5) 5.5366(5) ?
  Ti23 Ti23 . 2_6645 5.6137(5) 5.6137(5) 5.6137(5) ?
  Ti23 Ti23 . 2_6655 5.6137(5) 5.6137(5) 5.6137(5) ?
  Ti23 Fe23 . 1_5545 5.5366(5) 5.5366(5) 5.5366(5) ?
  Ti23 Fe23 . . 0 0 0 ?
  Ti23 Fe23 . 1_5565 5.5366(5) 5.5366(5) 5.5366(5) ?
  Ti23 Fe23 . 2_6645 5.6137(5) 5.6137(5) 5.6137(5) ?
  Ti23 Fe23 . 2_6655 5.6137(5) 5.6137(5) 5.6137(5) ?
  Ti23 O1 . . 5.895(10) 5.895(10) 5.895(10) ?
  Ti23 O1 . 1_6455 5.9402(14) 5.9402(14) 5.9402(14) ?
  Ti23 O1 . 1_6545 5.476(8) 5.476(8) 5.476(8) ?
  Ti23 O1 . 1_6555 2.023(10) 2.023(10) 2.023(10) ?
  Ti23 O1 . 7_5465 5.9399(14) 5.9399(14) 5.9399(14) ?
  Ti23 O1 . 7_5565 1.985(10) 1.985(10) 1.985(10) ?
  Ti23 O1 . 7_5575 5.680(7) 5.680(7) 5.680(7) ?
  Ti23 O1 . 7_6565 5.874(10) 5.874(10) 5.874(10) ?
  Ti23 O1 . 8_5655 5.552(8) 5.552(8) 5.552(8) ?
  Ti23 O1 . 8_5665 5.337(8) 5.337(8) 5.337(8) ?
  Ti23 O2 . . 4.423(15) 4.423(15) 4.423(15) ?
  Ti23 O2 . 1_5565 5.857(15) 5.857(15) 5.857(15) ?
  Ti23 O2 . 1_6455 5.859(8) 5.859(8) 5.859(8) ?
  Ti23 O2 . 1_6555 4.181(15) 4.181(15) 4.181(15) ?
  Ti23 O2 . 1_6565 5.676(15) 5.676(15) 5.676(15) ?
  Ti23 O2 . 2_6645 5.795(15) 5.795(15) 5.795(15) ?
  Ti23 O2 . 2_6655 4.203(15) 4.203(15) 4.203(15) ?
  Ti23 O2 . 7_5555 5.344(13) 5.344(13) 5.344(13) ?
  Ti23 O2 . 7_5565 4.197(13) 4.197(13) 4.197(13) ?
  Ti23 O2 . 7_6555 5.834(13) 5.834(13) 5.834(13) ?
  Ti23 O2 . 7_6565 4.805(13) 4.805(13) 4.805(13) ?
  Ti23 O3 . 1_5455 4.630(6) 4.630(6) 4.630(6) ?
  Ti23 O3 . . 1.772(15) 1.772(15) 1.772(15) ?
  Ti23 O3 . 1_5565 4.142(14) 4.142(14) 4.142(14) ?
  Ti23 O3 . 2_6645 5.930(15) 5.930(15) 5.930(15) ?
  Ti23 O3 . 2_6655 4.304(15) 4.304(15) 4.304(15) ?
  Ti23 O3 . 7_6555 3.948(13) 3.948(13) 3.948(13) ?
  Ti23 O3 . 7_6565 2.256(13) 2.256(13) 2.256(13) ?
  Ti23 La11 . 6_5555 3.3994(10) 3.3994(10) 3.3994(10) ?
  Ti23 La11 . 8_5455 3.6213(10) 3.6213(10) 3.6213(10) ?
  Ti23 Ti121 . 8_4455 5.404(3) 5.404(3) 5.404(3) ?
  Ti23 Ti121 . 8_4465 5.594(3) 5.594(3) 5.594(3) ?
  Ti23 Ti121 . 8_5455 5.401(3) 5.401(3) 5.401(3) ?
  Ti23 Ti121 . 8_5465 5.590(3) 5.590(3) 5.590(3) ?
  Ti23 Fe121 . 8_4455 5.404(3) 5.404(3) 5.404(3) ?
  Ti23 Fe121 . 8_4465 5.594(3) 5.594(3) 5.594(3) ?
  Ti23 Fe121 . 8_5455 5.401(3) 5.401(3) 5.401(3) ?
  Ti23 Fe121 . 8_5465 5.590(3) 5.590(3) 5.590(3) ?
  Ti23 Ti221 . 8_4455 3.706(2) 3.706(2) 3.706(2) ?
  Ti23 Ti221 . 8_4465 3.988(2) 3.988(2) 3.988(2) ?
  Ti23 Fe221 . 8_4455 3.706(2) 3.706(2) 3.706(2) ?
  Ti23 Fe221 . 8_4465 3.988(2) 3.988(2) 3.988(2) ?
  Ti23 O11 . 6_5545 4.419(17) 4.419(17) 4.419(17) ?
  Ti23 O11 . 6_5555 4.865(17) 4.865(17) 4.865(17) ?
  Ti23 O11 . 8_5455 4.080(18) 4.080(18) 4.080(18) ?
  Ti23 O11 . 8_5465 4.340(17) 4.340(17) 4.340(17) ?
  Ti23 O21 . 5_5555 3.063(11) 3.063(11) 3.063(11) ?
  Ti23 O21 . 5_5565 5.564(11) 5.564(11) 5.564(11) ?
  Ti23 O21 . 6_5545 4.97(2) 4.97(2) 4.97(2) ?
  Ti23 O21 . 6_5555 4.18(2) 4.18(2) 4.18(2) ?
  Ti23 O21 . 6_5645 4.372(11) 4.372(11) 4.372(11) ?
  Ti23 O21 . 6_5655 3.168(11) 3.168(11) 3.168(11) ?
  Ti23 O21 . 8_5455 3.12(3) 3.12(3) 3.12(3) ?
  Ti23 O21 . 8_5465 4.04(3) 4.04(3) 4.04(3) ?
  Ti23 O31 . 5_4555 3.136(11) 3.136(11) 3.136(11) ?
  Ti23 O31 . 5_4565 5.427(11) 5.427(11) 5.427(11) ?
  Ti23 O31 . 6_6545 5.56(2) 5.56(2) 5.56(2) ?
  Ti23 O31 . 6_6555 4.61(2) 4.61(2) 4.61(2) ?
  Ti23 O31 . 6_6645 4.445(11) 4.445(11) 4.445(11) ?
  Ti23 O31 . 6_6655 2.953(11) 2.953(11) 2.953(11) ?
  Ti23 O31 . 8_3455 4.67(3) 4.67(3) 4.67(3) ?
  Ti23 O31 . 8_3465 5.77(3) 5.77(3) 5.77(3) ?
  Ti23 O31 . 8_4455 5.02(3) 5.02(3) 5.02(3) ?
  Fe23 Fe23 . 1_5545 5.5366(5) 5.5366(5) 5.5366(5) ?
  Fe23 Fe23 . 1_5565 5.5366(5) 5.5366(5) 5.5366(5) ?
  Fe23 Fe23 . 2_6645 5.6137(5) 5.6137(5) 5.6137(5) ?
  Fe23 Fe23 . 2_6655 5.6137(5) 5.6137(5) 5.6137(5) ?
  Fe23 O1 . . 5.895(10) 5.895(10) 5.895(10) ?
  Fe23 O1 . 1_6455 5.9402(14) 5.9402(14) 5.9402(14) ?
  Fe23 O1 . 1_6545 5.476(8) 5.476(8) 5.476(8) ?
  Fe23 O1 . 1_6555 2.023(10) 2.023(10) 2.023(10) ?
  Fe23 O1 . 7_5465 5.9399(14) 5.9399(14) 5.9399(14) ?
  Fe23 O1 . 7_5565 1.985(10) 1.985(10) 1.985(10) ?
  Fe23 O1 . 7_5575 5.680(7) 5.680(7) 5.680(7) ?
  Fe23 O1 . 7_6565 5.874(10) 5.874(10) 5.874(10) ?
  Fe23 O1 . 8_5655 5.552(8) 5.552(8) 5.552(8) ?
  Fe23 O1 . 8_5665 5.337(8) 5.337(8) 5.337(8) ?
  Fe23 O2 . . 4.423(15) 4.423(15) 4.423(15) ?
  Fe23 O2 . 1_5565 5.857(15) 5.857(15) 5.857(15) ?
  Fe23 O2 . 1_6455 5.859(8) 5.859(8) 5.859(8) ?
  Fe23 O2 . 1_6555 4.181(15) 4.181(15) 4.181(15) ?
  Fe23 O2 . 1_6565 5.676(15) 5.676(15) 5.676(15) ?
  Fe23 O2 . 2_6645 5.795(15) 5.795(15) 5.795(15) ?
  Fe23 O2 . 2_6655 4.203(15) 4.203(15) 4.203(15) ?
  Fe23 O2 . 7_5555 5.344(13) 5.344(13) 5.344(13) ?
  Fe23 O2 . 7_5565 4.197(13) 4.197(13) 4.197(13) ?
  Fe23 O2 . 7_6555 5.834(13) 5.834(13) 5.834(13) ?
  Fe23 O2 . 7_6565 4.805(13) 4.805(13) 4.805(13) ?
  Fe23 O3 . 1_5455 4.630(6) 4.630(6) 4.630(6) ?
  Fe23 O3 . . 1.772(15) 1.772(15) 1.772(15) ?
  Fe23 O3 . 1_5565 4.142(14) 4.142(14) 4.142(14) ?
  Fe23 O3 . 2_6645 5.930(15) 5.930(15) 5.930(15) ?
  Fe23 O3 . 2_6655 4.304(15) 4.304(15) 4.304(15) ?
  Fe23 O3 . 7_6555 3.948(13) 3.948(13) 3.948(13) ?
  Fe23 O3 . 7_6565 2.256(13) 2.256(13) 2.256(13) ?
  Fe23 La11 . 6_5555 3.3994(10) 3.3994(10) 3.3994(10) ?
  Fe23 La11 . 8_5455 3.6213(10) 3.6213(10) 3.6213(10) ?
  Fe23 Ti121 . 8_4455 5.404(3) 5.404(3) 5.404(3) ?
  Fe23 Ti121 . 8_4465 5.594(3) 5.594(3) 5.594(3) ?
  Fe23 Ti121 . 8_5455 5.401(3) 5.401(3) 5.401(3) ?
  Fe23 Ti121 . 8_5465 5.590(3) 5.590(3) 5.590(3) ?
  Fe23 Fe121 . 8_4455 5.404(3) 5.404(3) 5.404(3) ?
  Fe23 Fe121 . 8_4465 5.594(3) 5.594(3) 5.594(3) ?
  Fe23 Fe121 . 8_5455 5.401(3) 5.401(3) 5.401(3) ?
  Fe23 Fe121 . 8_5465 5.590(3) 5.590(3) 5.590(3) ?
  Fe23 Ti221 . 8_4455 3.706(2) 3.706(2) 3.706(2) ?
  Fe23 Ti221 . 8_4465 3.988(2) 3.988(2) 3.988(2) ?
  Fe23 Fe221 . 8_4455 3.706(2) 3.706(2) 3.706(2) ?
  Fe23 Fe221 . 8_4465 3.988(2) 3.988(2) 3.988(2) ?
  Fe23 O11 . 6_5545 4.419(17) 4.419(17) 4.419(17) ?
  Fe23 O11 . 6_5555 4.865(17) 4.865(17) 4.865(17) ?
  Fe23 O11 . 8_5455 4.080(18) 4.080(18) 4.080(18) ?
  Fe23 O11 . 8_5465 4.340(17) 4.340(17) 4.340(17) ?
  Fe23 O21 . 5_5555 3.063(11) 3.063(11) 3.063(11) ?
  Fe23 O21 . 5_5565 5.564(11) 5.564(11) 5.564(11) ?
  Fe23 O21 . 6_5545 4.97(2) 4.97(2) 4.97(2) ?
  Fe23 O21 . 6_5555 4.18(2) 4.18(2) 4.18(2) ?
  Fe23 O21 . 6_5645 4.372(11) 4.372(11) 4.372(11) ?
  Fe23 O21 . 6_5655 3.168(11) 3.168(11) 3.168(11) ?
  Fe23 O21 . 8_5455 3.12(3) 3.12(3) 3.12(3) ?
  Fe23 O21 . 8_5465 4.04(3) 4.04(3) 4.04(3) ?
  Fe23 O31 . 5_4555 3.136(11) 3.136(11) 3.136(11) ?
  Fe23 O31 . 5_4565 5.427(11) 5.427(11) 5.427(11) ?
  Fe23 O31 . 6_6545 5.56(2) 5.56(2) 5.56(2) ?
  Fe23 O31 . 6_6555 4.61(2) 4.61(2) 4.61(2) ?
  Fe23 O31 . 6_6645 4.445(11) 4.445(11) 4.445(11) ?
  Fe23 O31 . 6_6655 2.953(11) 2.953(11) 2.953(11) ?
  Fe23 O31 . 8_3455 4.67(3) 4.67(3) 4.67(3) ?
  Fe23 O31 . 8_3465 5.77(3) 5.77(3) 5.77(3) ?
  Fe23 O31 . 8_4455 5.02(3) 5.02(3) 5.02(3) ?
  O1 O1 . 1_5455 5.339(8) 5.290(9) 5.387(8) ?
  O1 O1 . 1_5545 5.537(8) 5.537(2) 5.537(2) ?
  O1 O1 . 1_5565 5.537(8) 5.537(2) 5.537(2) ?
  O1 O1 . 1_5655 5.339(8) 5.290(9) 5.387(8) ?
  O1 O1 . 6_4445 5.958(11) 5.958(11) 5.958(11) ?
  O1 O1 . 6_4455 5.958(11) 5.958(11) 5.958(11) ?
  O1 O1 . 7_4565 3.969(10) 3.969(14) 3.970(2) ?
  O1 O1 . 7_5565 3.964(10) 3.964(14) 3.965(2) ?
  O1 O1 . 4_5465 5.762(12) 5.762(12) 5.762(12) ?
  O1 O1 . 8_4665 5.762(12) 5.762(12) 5.762(12) ?
  O1 O2 . 1_5455 4.855(13) 4.769(12) 4.940(14) ?
  O1 O2 . 1_5465 5.851(12) 5.841(11) 5.860(14) ?
  O1 O2 . . 2.835(14) 2.780(8) 2.941(17) ?
  O1 O2 . 1_5565 4.188(13) 4.044(15) 4.317(17) ?
  O1 O2 . 2_5645 5.933(17) 5.933(17) 5.933(17) ?
  O1 O2 . 2_5655 3.811(17) 3.811(17) 3.811(17) ?
  O1 O2 . 7_4565 5.880(14) 5.773(17) 6.009(17) ?
  O1 O2 . 7_5555 4.950(13) 4.890(16) 5.003(8) ?
  O1 O2 . 7_5565 2.803(14) 2.736(17) 2.865(16) ?
  O1 O2 . 7_5665 4.934(12) 4.868(11) 5.001(13) ?
  O1 O2 . 4_4455 5.637(17) 5.637(17) 5.637(17) ?
  O1 O2 . 4_5455 5.471(17) 5.471(17) 5.471(17) ?
  O1 O3 . 1_4455 4.896(12) 4.802(10) 4.989(13) ?
  O1 O3 . 1_4465 5.858(12) 5.853(10) 5.863(13) ?
  O1 O3 . 1_4555 2.834(13) 2.786(6) 2.928(17) ?
  O1 O3 . 1_4565 4.133(12) 3.991(15) 4.222(17) ?
  O1 O3 . 2_5655 5.643(17) 5.643(17) 5.643(17) ?
  O1 O3 . 2_6655 5.437(17) 5.437(17) 5.437(17) ?
  O1 O3 . 7_5555 4.903(13) 4.857(15) 4.982(6) ?
  O1 O3 . 7_5565 2.800(13) 2.713(17) 2.887(16) ?
  O1 O3 . 7_5665 4.969(12) 4.887(10) 5.052(13) ?
  O1 O3 . 7_6565 5.869(13) 5.755(16) 5.992(17) ?
  O1 O3 . 4_4455 4.036(17) 4.036(17) 4.036(17) ?
  O1 O3 . 4_4465 5.531(16) 5.531(16) 5.531(16) ?
  O1 La11 . 6_4555 4.665(6) 4.640(10) 4.6901(19) ?
  O1 La11 . 6_4655 4.841(5) 4.8381(19) 4.845(9) ?
  O1 La11 . 6_5555 4.657(6) 4.626(10) 4.6883(19) ?
  O1 La11 . 6_5655 4.841(5) 4.8321(19) 4.849(9) ?
  O1 La11 . 8_4455 2.806(5) 2.755(8) 2.8573(15) ?
  O1 La11 . 8_4465 5.980(5) 5.9491(16) 6.010(8) ?
  O1 La11 . 8_4555 2.571(5) 2.5605(15) 2.581(8) ?
  O1 La11 . 8_4565 5.754(4) 5.707(7) 5.8007(16) ?
  O1 Ti121 . 6_5545 4.649(3) 4.649(3) 4.649(3) ?
  O1 Ti121 . 6_5555 4.303(3) 4.303(3) 4.303(3) ?
  O1 Ti121 . 6_5645 4.466(8) 4.466(8) 4.466(8) ?
  O1 Ti121 . 6_5655 3.940(8) 3.940(8) 3.940(8) ?
  O1 Ti121 . 8_4455 4.314(9) 4.314(9) 4.314(9) ?
  O1 Ti121 . 8_4465 3.992(9) 3.992(9) 3.992(9) ?
  O1 Ti121 . 8_4555 4.700(3) 4.700(3) 4.700(3) ?
  O1 Ti121 . 8_4565 4.240(3) 4.240(3) 4.240(3) ?
  O1 Fe121 . 6_5545 4.649(3) 4.649(3) 4.649(3) ?
  O1 Fe121 . 6_5555 4.303(3) 4.303(3) 4.303(3) ?
  O1 Fe121 . 6_5645 4.466(8) 4.466(8) 4.466(8) ?
  O1 Fe121 . 6_5655 3.940(8) 3.940(8) 3.940(8) ?
  O1 Fe121 . 8_4455 4.314(9) 4.314(9) 4.314(9) ?
  O1 Fe121 . 8_4465 3.992(9) 3.992(9) 3.992(9) ?
  O1 Fe121 . 8_4555 4.700(3) 4.700(3) 4.700(3) ?
  O1 Fe121 . 8_4565 4.240(3) 4.240(3) 4.240(3) ?
  O1 Ti221 . 6_5545 4.664(3) 4.664(3) 4.664(3) ?
  O1 Ti221 . 6_5555 4.310(3) 4.310(3) 4.310(3) ?
  O1 Ti221 . 6_5645 4.456(8) 4.456(8) 4.456(8) ?
  O1 Ti221 . 6_5655 3.918(8) 3.918(8) 3.918(8) ?
  O1 Ti221 . 8_3455 4.306(9) 4.306(9) 4.306(9) ?
  O1 Ti221 . 8_3465 3.994(9) 3.994(9) 3.994(9) ?
  O1 Ti221 . 8_3555 4.710(3) 4.710(3) 4.710(3) ?
  O1 Ti221 . 8_3565 4.261(3) 4.261(3) 4.261(3) ?
  O1 Fe221 . 6_5545 4.664(3) 4.664(3) 4.664(3) ?
  O1 Fe221 . 6_5555 4.310(3) 4.310(3) 4.310(3) ?
  O1 Fe221 . 6_5645 4.456(8) 4.456(8) 4.456(8) ?
  O1 Fe221 . 6_5655 3.918(8) 3.918(8) 3.918(8) ?
  O1 Fe221 . 8_3455 4.306(9) 4.306(9) 4.306(9) ?
  O1 Fe221 . 8_3465 3.994(9) 3.994(9) 3.994(9) ?
  O1 Fe221 . 8_3555 4.710(3) 4.710(3) 4.710(3) ?
  O1 Fe221 . 8_3565 4.261(3) 4.261(3) 4.261(3) ?
  O1 O11 . 6_4545 5.75(2) 5.62(2) 5.879(19) ?
  O1 O11 . 6_4555 5.58(2) 5.57(2) 5.600(19) ?
  O1 O11 . 6_4645 5.52(2) 5.497(18) 5.54(2) ?
  O1 O11 . 6_4655 5.21(2) 5.11(2) 5.307(19) ?
  O1 O11 . 6_5545 5.72(2) 5.58(2) 5.852(19) ?
  O1 O11 . 6_5555 5.55(2) 5.53(2) 5.573(19) ?
  O1 O11 . 6_5645 5.49(2) 5.461(18) 5.51(2) ?
  O1 O11 . 6_5655 5.18(2) 5.09(2) 5.270(19) ?
  O1 O11 . 8_4455 3.891(17) 3.714(18) 4.068(16) ?
  O1 O11 . 8_4465 3.362(17) 3.350(18) 3.375(16) ?
  O1 O11 . 8_4555 4.426(17) 4.406(17) 4.446(18) ?
  O1 O11 . 8_4565 3.784(17) 3.645(18) 3.924(17) ?
  O1 O21 . 5_4555 3.985(14) 3.985(14) 3.985(14) ?
  O1 O21 . 5_4565 5.718(14) 5.718(14) 5.718(14) ?
  O1 O21 . 6_4545 5.50(3) 5.10(3) 5.90(2) ?
  O1 O21 . 6_4555 4.54(3) 4.29(3) 4.78(2) ?
  O1 O21 . 6_4645 5.30(2) 4.39(3) 5.911(14) ?
  O1 O21 . 6_4655 4.02(2) 3.23(3) 4.595(15) ?
  O1 O21 . 6_5555 6.57(3) 5.76(2) 7.38(3) ?
  O1 O21 . 6_5645 6.59(2) 5.875(14) 7.45(3) ?
  O1 O21 . 6_5655 5.56(2) 4.548(15) 6.82(3) ?
  O1 O21 . 3_5565 3.782(14) 3.782(14) 3.782(14) ?
  O1 O21 . 8_4455 3.32(2) 2.769(13) 3.98(3) ?
  O1 O21 . 8_4465 4.02(2) 3.796(13) 4.20(3) ?
  O1 O21 . 8_4555 4.44(3) 3.97(2) 4.92(3) ?
  O1 O21 . 8_4565 4.75(3) 4.54(2) 4.95(3) ?
  O1 O31 . 5_3555 4.136(14) 4.136(14) 4.136(14) ?
  O1 O31 . 5_3565 5.654(14) 5.654(14) 5.654(14) ?
  O1 O31 . 6_5555 6.38(2) 5.61(2) 7.14(3) ?
  O1 O31 . 6_5645 6.67(2) 5.926(14) 7.58(3) ?
  O1 O31 . 6_5655 5.38(2) 4.396(15) 6.60(3) ?
  O1 O31 . 6_6545 5.77(2) 5.42(3) 6.12(2) ?
  O1 O31 . 6_6555 4.45(2) 4.11(3) 4.79(2) ?
  O1 O31 . 6_6645 5.58(2) 4.83(3) 6.095(14) ?
  O1 O31 . 6_6655 3.99(2) 3.08(3) 4.621(15) ?
  O1 O31 . 3_6565 3.751(14) 3.751(14) 3.751(14) ?
  O1 O31 . 8_3455 3.10(2) 2.624(13) 3.64(3) ?
  O1 O31 . 8_3465 4.22(2) 3.949(13) 4.47(3) ?
  O1 O31 . 8_3555 4.21(2) 3.83(2) 4.58(3) ?
  O1 O31 . 8_3565 4.91(2) 4.69(2) 5.13(3) ?
  O2 O2 . 1_5455 5.465(16) 5.464(16) 5.466(17) ?
  O2 O2 . 1_5545 5.537(17) 5.537(11) 5.537(11) ?
  O2 O2 . 1_5565 5.537(17) 5.537(11) 5.537(11) ?
  O2 O2 . 1_5655 5.465(16) 5.464(16) 5.466(17) ?
  O2 O2 . 2_5645 4.01(2) 4.01(2) 4.01(2) ?
  O2 O2 . 2_5655 4.01(2) 4.01(2) 4.01(2) ?
  O2 O2 . 7_5555 3.391(17) 3.36(2) 3.456(11) ?
  O2 O2 . 7_5565 4.000(17) 3.938(11) 4.03(2) ?
  O2 O2 . 7_5655 3.985(15) 3.985(15) 3.985(15) ?
  O2 O2 . 7_5665 4.411(15) 4.411(15) 4.411(15) ?
  O2 O2 . 4_5455 5.23(2) 5.23(2) 5.23(2) ?
  O2 O2 . 8_4655 5.23(2) 5.23(2) 5.23(2) ?
  O2 O3 . 1_4555 3.408(16) 3.189(18) 3.66(2) ?
  O2 O3 . . 4.422(16) 4.18(2) 4.639(18) ?
  O2 O3 . 2_6645 4.23(2) 4.23(2) 4.23(2) ?
  O2 O3 . 2_6655 4.15(2) 4.15(2) 4.15(2) ?
  O2 O3 . 7_5555 5.110(16) 4.88(2) 5.285(19) ?
  O2 O3 . 7_5565 5.575(16) 5.43(2) 5.775(19) ?
  O2 O3 . 7_5655 5.558(15) 5.491(15) 5.625(15) ?
  O2 O3 . 7_5665 5.897(15) 5.823(15) 5.971(15) ?
  O2 O3 . 7_6555 5.104(16) 4.913(19) 5.22(2) ?
  O2 O3 . 7_6565 5.568(16) 5.436(19) 5.74(2) ?
  O2 O3 . 7_6655 5.555(15) 5.487(15) 5.623(15) ?
  O2 O3 . 7_6665 5.895(15) 5.842(15) 5.947(15) ?
  O2 O3 . 4_4455 5.10(2) 5.10(2) 5.10(2) ?
  O2 O3 . 8_4655 5.31(2) 5.31(2) 5.31(2) ?
  O2 La11 . 6_4655 6.006(10) 5.978(13) 6.034(8) ?
  O2 La11 . 6_5545 5.871(11) 5.832(15) 5.909(8) ?
  O2 La11 . 6_5555 4.638(11) 4.619(8) 4.656(15) ?
  O2 La11 . 6_5645 4.898(11) 4.868(8) 4.927(13) ?
  O2 La11 . 6_5655 3.215(10) 3.158(8) 3.271(13) ?
  O2 La11 . 8_4445 5.911(11) 5.899(8) 5.924(15) ?
  O2 La11 . 8_4455 4.712(11) 4.629(8) 4.794(15) ?
  O2 La11 . 8_4545 4.529(11) 4.520(13) 4.538(8) ?
  O2 La11 . 8_4555 2.662(11) 2.660(13) 2.664(8) ?
  O2 Ti121 . 6_5545 4.272(8) 4.272(8) 4.272(8) ?
  O2 Ti121 . 6_5555 5.989(8) 5.989(8) 5.989(8) ?
  O2 Ti121 . 6_5645 1.836(14) 1.836(14) 1.836(14) ?
  O2 Ti121 . 6_5655 4.583(14) 4.583(14) 4.583(14) ?
  O2 Ti121 . 8_4455 3.918(15) 3.918(15) 3.918(15) ?
  O2 Ti121 . 8_4465 5.775(15) 5.775(15) 5.775(15) ?
  O2 Ti121 . 8_4555 2.153(8) 2.153(8) 2.153(8) ?
  O2 Ti121 . 8_4565 4.608(8) 4.608(8) 4.608(8) ?
  O2 Fe121 . 6_5545 4.272(8) 4.272(8) 4.272(8) ?
  O2 Fe121 . 6_5555 5.989(8) 5.989(8) 5.989(8) ?
  O2 Fe121 . 6_5645 1.836(14) 1.836(14) 1.836(14) ?
  O2 Fe121 . 6_5655 4.583(14) 4.583(14) 4.583(14) ?
  O2 Fe121 . 8_4455 3.918(15) 3.918(15) 3.918(15) ?
  O2 Fe121 . 8_4465 5.775(15) 5.775(15) 5.775(15) ?
  O2 Fe121 . 8_4555 2.153(8) 2.153(8) 2.153(8) ?
  O2 Fe121 . 8_4565 4.608(8) 4.608(8) 4.608(8) ?
  O2 Ti221 . 6_5545 5.616(8) 5.616(8) 5.616(8) ?
  O2 Ti221 . 6_5645 3.973(14) 3.973(14) 3.973(14) ?
  O2 Ti221 . 6_5655 5.773(14) 5.773(14) 5.773(14) ?
  O2 Ti221 . 6_6545 5.995(8) 5.995(8) 5.995(8) ?
  O2 Ti221 . 6_6645 4.642(14) 4.642(14) 4.642(14) ?
  O2 Ti221 . 8_3455 5.441(15) 5.441(15) 5.441(15) ?
  O2 Ti221 . 8_3555 4.237(8) 4.237(8) 4.237(8) ?
  O2 Ti221 . 8_3565 5.886(8) 5.886(8) 5.886(8) ?
  O2 Ti221 . 8_4455 5.604(15) 5.604(15) 5.604(15) ?
  O2 Ti221 . 8_4555 4.693(8) 4.693(8) 4.693(8) ?
  O2 Fe221 . 6_5545 5.616(8) 5.616(8) 5.616(8) ?
  O2 Fe221 . 6_5645 3.973(14) 3.973(14) 3.973(14) ?
  O2 Fe221 . 6_5655 5.773(14) 5.773(14) 5.773(14) ?
  O2 Fe221 . 6_6545 5.995(8) 5.995(8) 5.995(8) ?
  O2 Fe221 . 6_6645 4.642(14) 4.642(14) 4.642(14) ?
  O2 Fe221 . 8_3455 5.441(15) 5.441(15) 5.441(15) ?
  O2 Fe221 . 8_3555 4.237(8) 4.237(8) 4.237(8) ?
  O2 Fe221 . 8_3565 5.886(8) 5.886(8) 5.886(8) ?
  O2 Fe221 . 8_4455 5.604(15) 5.604(15) 5.604(15) ?
  O2 Fe221 . 8_4555 4.693(8) 4.693(8) 4.693(8) ?
  O2 O11 . 6_4645 5.82(2) 5.78(2) 5.87(2) ?
  O2 O11 . 6_5545 4.87(2) 4.77(2) 4.98(2) ?
  O2 O11 . 6_5645 2.80(2) 2.76(2) 2.83(2) ?
  O2 O11 . 6_5655 5.09(2) 5.06(2) 5.128(18) ?
  O2 O11 . 8_4455 4.19(2) 4.14(2) 4.233(19) ?
  O2 O11 . 8_4465 5.86(2) 5.786(18) 5.93(2) ?
  O2 O11 . 8_4555 2.80(2) 2.76(2) 2.84(2) ?
  O2 O11 . 8_4565 4.90(2) 4.82(2) 4.976(18) ?
  O2 O21 . 5_4555 4.264(18) 4.264(18) 4.264(18) ?
  O2 O21 . 5_5555 4.519(18) 4.519(18) 4.519(18) ?
  O2 O21 . 6_4545 6.44(3) 5.85(3) 7.02(3) ?
  O2 O21 . 6_4645 5.11(2) 3.68(3) 6.172(18) ?
  O2 O21 . 6_4655 5.99(2) 5.17(3) 6.703(18) ?
  O2 O21 . 6_5545 6.10(3) 5.57(3) 6.63(3) ?
  O2 O21 . 6_5645 3.90(2) 3.013(18) 4.97(3) ?
  O2 O21 . 6_5655 4.91(2) 3.989(19) 6.15(3) ?
  O2 O21 . 8_4455 4.25(2) 3.249(17) 5.33(3) ?
  O2 O21 . 8_4555 3.85(3) 3.07(2) 4.64(3) ?
  O2 O21 . 8_5455 6.11(2) 4.99(3) 6.865(17) ?
  O2 O21 . 8_5555 5.22(3) 4.50(3) 5.94(2) ?
  O2 O31 . 5_3555 4.390(18) 4.390(18) 4.390(18) ?
  O2 O31 . 5_4555 4.364(18) 4.364(18) 4.364(18) ?
  O2 O31 . 6_6545 5.07(3) 4.95(3) 5.19(3) ?
  O2 O31 . 6_6555 5.74(3) 5.72(3) 5.76(3) ?
  O2 O31 . 6_6645 2.85(2) 2.24(3) 3.245(18) ?
  O2 O31 . 6_6655 3.78(2) 3.64(3) 3.925(18) ?
  O2 O31 . 8_3455 3.42(2) 3.308(17) 3.60(2) ?
  O2 O31 . 8_3555 2.27(3) 2.24(3) 2.31(2) ?
  O2 O31 . 8_3565 5.73(3) 5.57(3) 5.90(2) ?
  O3 O3 . 1_5455 5.423(15) 5.364(16) 5.482(14) ?
  O3 O3 . 1_5545 5.537(15) 5.537(8) 5.537(8) ?
  O3 O3 . 1_5565 5.537(15) 5.537(8) 5.537(8) ?
  O3 O3 . 1_5655 5.423(15) 5.364(16) 5.482(14) ?
  O3 O3 . 2_6645 4.41(2) 4.41(2) 4.41(2) ?
  O3 O3 . 2_6655 4.41(2) 4.41(2) 4.41(2) ?
  O3 O3 . 7_6555 3.245(16) 3.168(19) 3.398(8) ?
  O3 O3 . 7_6565 3.992(16) 3.932(8) 4.023(19) ?
  O3 O3 . 7_6655 4.003(14) 4.003(14) 4.003(14) ?
  O3 O3 . 7_6665 4.497(14) 4.497(14) 4.497(14) ?
  O3 O3 . 4_5455 5.14(2) 5.14(2) 5.14(2) ?
  O3 O3 . 8_4655 5.14(2) 5.14(2) 5.14(2) ?
  O3 La11 . 6_5545 5.795(10) 5.710(15) 5.881(6) ?
  O3 La11 . 6_5555 4.592(10) 4.583(15) 4.601(6) ?
  O3 La11 . 6_5645 4.888(9) 4.863(6) 4.914(13) ?
  O3 La11 . 6_5655 3.249(9) 3.178(6) 3.319(13) ?
  O3 La11 . 6_6655 6.019(9) 5.991(13) 6.046(6) ?
  O3 La11 . 8_5445 5.832(10) 5.789(15) 5.875(6) ?
  O3 La11 . 8_5455 4.661(10) 4.618(6) 4.705(15) ?
  O3 La11 . 8_5545 4.515(9) 4.496(13) 4.534(6) ?
  O3 La11 . 8_5555 2.696(9) 2.690(6) 2.703(13) ?
  O3 Ti121 . 6_5545 5.953(7) 5.953(7) 5.953(7) ?
  O3 Ti121 . 6_5645 4.652(13) 4.652(13) 4.652(13) ?
  O3 Ti121 . 6_6545 5.588(7) 5.588(7) 5.588(7) ?
  O3 Ti121 . 6_6645 3.976(13) 3.976(13) 3.976(13) ?
  O3 Ti121 . 6_6655 5.821(13) 5.821(13) 5.821(13) ?
  O3 Ti121 . 8_4455 5.532(15) 5.532(15) 5.532(15) ?
  O3 Ti121 . 8_4555 4.692(7) 4.692(7) 4.692(7) ?
  O3 Ti121 . 8_5455 5.344(15) 5.344(15) 5.344(15) ?
  O3 Ti121 . 8_5555 4.238(7) 4.238(7) 4.238(7) ?
  O3 Ti121 . 8_5565 5.894(6) 5.894(6) 5.894(6) ?
  O3 Fe121 . 6_5545 5.953(7) 5.953(7) 5.953(7) ?
  O3 Fe121 . 6_5645 4.652(13) 4.652(13) 4.652(13) ?
  O3 Fe121 . 6_6545 5.588(7) 5.588(7) 5.588(7) ?
  O3 Fe121 . 6_6645 3.976(13) 3.976(13) 3.976(13) ?
  O3 Fe121 . 6_6655 5.821(13) 5.821(13) 5.821(13) ?
  O3 Fe121 . 8_4455 5.532(15) 5.532(15) 5.532(15) ?
  O3 Fe121 . 8_4555 4.692(7) 4.692(7) 4.692(7) ?
  O3 Fe121 . 8_5455 5.344(15) 5.344(15) 5.344(15) ?
  O3 Fe121 . 8_5555 4.238(7) 4.238(7) 4.238(7) ?
  O3 Fe121 . 8_5565 5.894(6) 5.894(6) 5.894(6) ?
  O3 Ti221 . 6_6545 4.263(6) 4.263(6) 4.263(6) ?
  O3 Ti221 . 6_6555 5.991(6) 5.991(6) 5.991(6) ?
  O3 Ti221 . 6_6645 1.834(13) 1.834(13) 1.834(13) ?
  O3 Ti221 . 6_6655 4.621(13) 4.621(13) 4.621(13) ?
  O3 Ti221 . 8_4455 3.757(15) 3.757(15) 3.757(15) ?
  O3 Ti221 . 8_4465 5.738(15) 5.738(15) 5.738(15) ?
  O3 Ti221 . 8_4555 2.174(6) 2.174(6) 2.174(6) ?
  O3 Ti221 . 8_4565 4.646(6) 4.646(6) 4.646(6) ?
  O3 Fe221 . 6_6545 4.263(6) 4.263(6) 4.263(6) ?
  O3 Fe221 . 6_6555 5.991(6) 5.991(6) 5.991(6) ?
  O3 Fe221 . 6_6645 1.834(13) 1.834(13) 1.834(13) ?
  O3 Fe221 . 6_6655 4.621(13) 4.621(13) 4.621(13) ?
  O3 Fe221 . 8_4455 3.757(15) 3.757(15) 3.757(15) ?
  O3 Fe221 . 8_4465 5.738(15) 5.738(15) 5.738(15) ?
  O3 Fe221 . 8_4555 2.174(6) 2.174(6) 2.174(6) ?
  O3 Fe221 . 8_4565 4.646(6) 4.646(6) 4.646(6) ?
  O3 O11 . 6_5545 4.82(2) 4.67(2) 4.967(19) ?
  O3 O11 . 6_5645 2.84(2) 2.80(2) 2.87(2) ?
  O3 O11 . 6_5655 5.143(19) 5.12(2) 5.165(17) ?
  O3 O11 . 6_6645 5.78(2) 5.73(2) 5.83(2) ?
  O3 O11 . 8_5455 4.13(2) 4.02(2) 4.229(18) ?
  O3 O11 . 8_5465 5.86(2) 5.798(17) 5.92(2) ?
  O3 O11 . 8_5555 2.83(2) 2.79(2) 2.874(19) ?
  O3 O11 . 8_5565 4.947(19) 4.88(2) 5.014(18) ?
  O3 O21 . 5_5545 5.259(18) 5.259(18) 5.259(18) ?
  O3 O21 . 5_5555 2.136(19) 2.136(19) 2.136(19) ?
  O3 O21 . 6_5545 4.86(3) 4.81(3) 4.91(3) ?
  O3 O21 . 6_5555 5.92(3) 5.80(3) 6.04(3) ?
  O3 O21 . 6_5645 2.55(2) 1.80(3) 3.027(18) ?
  O3 O21 . 6_5655 4.04(2) 3.93(2) 4.10(3) ?
  O3 O21 . 3_6555 5.142(17) 5.142(17) 5.142(17) ?
  O3 O21 . 3_6565 5.002(17) 5.002(17) 5.002(17) ?
  O3 O21 . 8_5455 3.35(2) 3.227(17) 3.56(2) ?
  O3 O21 . 8_5465 6.14(2) 5.81(3) 6.31(2) ?
  O3 O21 . 8_5555 2.38(3) 2.30(2) 2.45(3) ?
  O3 O21 . 8_5565 5.47(3) 5.22(3) 5.71(2) ?
  O3 O31 . 5_4545 5.435(18) 5.435(18) 5.435(18) ?
  O3 O31 . 5_4555 2.119(19) 2.119(19) 2.119(19) ?
  O3 O31 . 6_6545 6.04(3) 5.48(3) 6.60(3) ?
  O3 O31 . 6_6645 3.94(2) 3.044(18) 5.02(3) ?
  O3 O31 . 6_6655 4.68(2) 3.856(18) 5.82(3) ?
  O3 O31 . 6_7545 6.54(3) 6.00(3) 7.08(3) ?
  O3 O31 . 6_7645 5.33(2) 3.99(3) 6.316(18) ?
  O3 O31 . 6_7655 5.94(2) 4.96(3) 6.745(18) ?
  O3 O31 . 3_7555 5.050(17) 5.050(17) 5.050(17) ?
  O3 O31 . 3_7565 5.103(17) 5.103(17) 5.103(17) ?
  O3 O31 . 8_3455 6.16(2) 4.99(3) 6.952(17) ?
  O3 O31 . 8_3555 5.30(3) 4.53(3) 6.08(2) ?
  O3 O31 . 8_4455 4.10(2) 3.133(17) 5.13(3) ?
  O3 O31 . 8_4555 3.72(3) 2.98(2) 4.45(3) ?
  La11 La11 . 1_5455 5.3808(9) 5.3808(9) 5.3808(9) ?
  La11 La11 . 1_5545 5.5366(7) 5.5366(7) 5.5366(7) ?
  La11 La11 . 1_5565 5.5366(7) 5.5366(7) 5.5366(7) ?
  La11 La11 . 1_5655 5.3808(9) 5.3808(9) 5.3808(9) ?
  La11 La11 . 3_5655 3.926(2) 3.926(2) 3.926(2) ?
  La11 La11 . 3_6655 3.921(2) 3.921(2) 3.921(2) ?
  La11 Ti121 . 1_5545 3.371(3) 3.371(3) 3.371(3) ?
  La11 Ti121 . . 3.452(3) 3.452(3) 3.452(3) ?
  La11 Ti121 . 3_6655 3.411(3) 3.411(3) 3.411(3) ?
  La11 Ti121 . 3_6665 3.362(3) 3.362(3) 3.362(3) ?
  La11 Fe121 . 1_5545 3.371(3) 3.371(3) 3.371(3) ?
  La11 Fe121 . . 3.452(3) 3.452(3) 3.452(3) ?
  La11 Fe121 . 3_6655 3.411(3) 3.411(3) 3.411(3) ?
  La11 Fe121 . 3_6665 3.362(3) 3.362(3) 3.362(3) ?
  La11 Ti221 . 1_4545 3.383(3) 3.383(3) 3.383(3) ?
  La11 Ti221 . 1_4555 3.451(3) 3.451(3) 3.451(3) ?
  La11 Ti221 . 3_6655 3.405(3) 3.405(3) 3.405(3) ?
  La11 Ti221 . 3_6665 3.369(3) 3.369(3) 3.369(3) ?
  La11 Fe221 . 1_4545 3.383(3) 3.383(3) 3.383(3) ?
  La11 Fe221 . 1_4555 3.451(3) 3.451(3) 3.451(3) ?
  La11 Fe221 . 3_6655 3.405(3) 3.405(3) 3.405(3) ?
  La11 Fe221 . 3_6665 3.369(3) 3.369(3) 3.369(3) ?
  La11 O11 . 1_5445 5.653(16) 5.653(16) 5.653(16) ?
  La11 O11 . 1_5455 5.793(16) 5.793(16) 5.793(16) ?
  La11 O11 . 1_5545 2.711(15) 2.639(15) 2.784(16) ?
  La11 O11 . . 2.906(15) 2.864(16) 2.948(15) ?
  La11 O11 . 3_5655 4.862(19) 4.83(2) 4.893(19) ?
  La11 O11 . 3_5665 4.772(19) 4.737(19) 4.81(2) ?
  La11 O11 . 3_6655 4.826(19) 4.80(2) 4.856(19) ?
  La11 O11 . 3_6665 4.735(19) 4.698(19) 4.77(2) ?
  La11 O21 . 1_5445 5.889(16) 5.726(11) 6.05(2) ?
  La11 O21 . 1_5455 4.899(16) 4.615(11) 5.18(2) ?
  La11 O21 . 1_5545 3.86(2) 3.74(2) 3.97(3) ?
  La11 O21 . . 2.77(2) 2.10(2) 3.44(3) ?
  La11 O21 . 3_5655 3.35(2) 2.94(3) 3.77(2) ?
  La11 O21 . 3_5665 4.24(2) 3.57(3) 4.90(2) ?
  La11 O21 . 3_6655 5.82(2) 4.96(2) 6.69(3) ?
  La11 O21 . 3_6665 6.43(2) 5.87(2) 6.99(3) ?
  La11 O31 . 1_4445 6.002(16) 5.834(11) 6.17(2) ?
  La11 O31 . 1_4455 4.809(16) 4.537(11) 5.08(2) ?
  La11 O31 . 1_4545 4.10(2) 3.95(2) 4.25(3) ?
  La11 O31 . 1_4555 2.45(2) 1.86(2) 3.04(3) ?
  La11 O31 . 3_6655 5.59(2) 4.76(2) 6.42(3) ?
  La11 O31 . 3_6665 6.50(2) 5.91(2) 7.09(3) ?
  La11 O31 . 3_7655 3.22(2) 2.66(3) 3.78(2) ?
  La11 O31 . 3_7665 4.58(2) 4.01(3) 5.16(2) ?
  Ti121 Ti121 . 1_5545 5.537(3) 5.537(3) 5.537(3) ?
  Ti121 Ti121 . 1_5565 5.537(3) 5.537(3) 5.537(3) ?
  Ti121 Ti121 . 3_6565 5.816(3) 5.816(3) 5.816(3) ?
  Ti121 Fe121 . 1_5545 5.537(3) 5.537(3) 5.537(3) ?
  Ti121 Fe121 . . 0 0 0 ?
  Ti121 Fe121 . 1_5565 5.537(3) 5.537(3) 5.537(3) ?
  Ti121 Fe121 . 3_6565 5.816(3) 5.816(3) 5.816(3) ?
  Ti121 Ti221 . 1_4555 3.929(5) 3.929(5) 3.929(5) ?
  Ti121 Ti221 . . 3.898(5) 3.898(5) 3.898(5) ?
  Ti121 Fe221 . 1_4555 3.929(5) 3.929(5) 3.929(5) ?
  Ti121 Fe221 . . 3.898(5) 3.898(5) 3.898(5) ?
  Ti121 O11 . 1_5455 5.704(17) 5.704(17) 5.704(17) ?
  Ti121 O11 . 1_5545 5.880(16) 5.880(16) 5.880(16) ?
  Ti121 O11 . . 1.95(2) 1.95(2) 1.95(2) ?
  Ti121 O11 . 1_5565 5.863(16) 5.863(16) 5.863(16) ?
  Ti121 O11 . 1_6555 5.89(2) 5.89(2) 5.89(2) ?
  Ti121 O11 . 3_5665 5.92(2) 5.92(2) 5.92(2) ?
  Ti121 O11 . 3_6665 1.99(2) 1.99(2) 1.99(2) ?
  Ti121 O11 . 3_6675 5.705(16) 5.705(16) 5.705(16) ?
  Ti121 O21 . 1_5455 5.84(2) 5.84(2) 5.84(2) ?
  Ti121 O21 . . 4.31(3) 4.31(3) 4.31(3) ?
  Ti121 O21 . 1_6555 3.61(3) 3.61(3) 3.61(3) ?
  Ti121 O21 . 3_5665 5.32(2) 5.32(2) 5.32(2) ?
  Ti121 O21 . 3_6655 5.42(2) 5.42(2) 5.42(2) ?
  Ti121 O21 . 3_6665 2.83(2) 2.83(2) 2.83(2) ?
  Ti121 O21 . 3_6765 4.731(11) 4.731(11) 4.731(11) ?
  Ti121 O31 . 1_4455 5.45(2) 5.45(2) 5.45(2) ?
  Ti121 O31 . 1_4555 0.97(3) 0.97(3) 0.97(3) ?
  Ti121 O31 . 1_4565 4.71(3) 4.71(3) 4.71(3) ?
  Ti121 O31 . 3_7655 4.74(2) 4.74(2) 4.74(2) ?
  Ti121 O31 . 3_7665 1.90(2) 1.90(2) 1.90(2) ?
  Ti121 O31 . 3_7765 4.822(11) 4.822(11) 4.822(11) ?
  Fe121 Fe121 . 1_5545 5.537(3) 5.537(3) 5.537(3) ?
  Fe121 Fe121 . 1_5565 5.537(3) 5.537(3) 5.537(3) ?
  Fe121 Fe121 . 3_6565 5.816(3) 5.816(3) 5.816(3) ?
  Fe121 Ti221 . 1_4555 3.929(5) 3.929(5) 3.929(5) ?
  Fe121 Ti221 . . 3.898(5) 3.898(5) 3.898(5) ?
  Fe121 Fe221 . 1_4555 3.929(5) 3.929(5) 3.929(5) ?
  Fe121 Fe221 . . 3.898(5) 3.898(5) 3.898(5) ?
  Fe121 O11 . 1_5455 5.704(17) 5.704(17) 5.704(17) ?
  Fe121 O11 . 1_5545 5.880(16) 5.880(16) 5.880(16) ?
  Fe121 O11 . . 1.95(2) 1.95(2) 1.95(2) ?
  Fe121 O11 . 1_5565 5.863(16) 5.863(16) 5.863(16) ?
  Fe121 O11 . 1_6555 5.89(2) 5.89(2) 5.89(2) ?
  Fe121 O11 . 3_5665 5.92(2) 5.92(2) 5.92(2) ?
  Fe121 O11 . 3_6665 1.99(2) 1.99(2) 1.99(2) ?
  Fe121 O11 . 3_6675 5.705(16) 5.705(16) 5.705(16) ?
  Fe121 O21 . 1_5455 5.84(2) 5.84(2) 5.84(2) ?
  Fe121 O21 . . 4.31(3) 4.31(3) 4.31(3) ?
  Fe121 O21 . 1_6555 3.61(3) 3.61(3) 3.61(3) ?
  Fe121 O21 . 3_5665 5.32(2) 5.32(2) 5.32(2) ?
  Fe121 O21 . 3_6655 5.42(2) 5.42(2) 5.42(2) ?
  Fe121 O21 . 3_6665 2.83(2) 2.83(2) 2.83(2) ?
  Fe121 O21 . 3_6765 4.731(11) 4.731(11) 4.731(11) ?
  Fe121 O31 . 1_4455 5.45(2) 5.45(2) 5.45(2) ?
  Fe121 O31 . 1_4555 0.97(3) 0.97(3) 0.97(3) ?
  Fe121 O31 . 1_4565 4.71(3) 4.71(3) 4.71(3) ?
  Fe121 O31 . 3_7655 4.74(2) 4.74(2) 4.74(2) ?
  Fe121 O31 . 3_7665 1.90(2) 1.90(2) 1.90(2) ?
  Fe121 O31 . 3_7765 4.822(11) 4.822(11) 4.822(11) ?
  Ti221 Ti221 . 1_5545 5.537(3) 5.537(3) 5.537(3) ?
  Ti221 Ti221 . 1_5565 5.537(3) 5.537(3) 5.537(3) ?
  Ti221 Ti221 . 3_7565 5.853(3) 5.853(3) 5.853(3) ?
  Ti221 Fe221 . 1_5545 5.537(3) 5.537(3) 5.537(3) ?
  Ti221 Fe221 . . 0 0 0 ?
  Ti221 Fe221 . 1_5565 5.537(3) 5.537(3) 5.537(3) ?
  Ti221 Fe221 . 3_7565 5.853(3) 5.853(3) 5.853(3) ?
  Ti221 O11 . . 5.84(2) 5.84(2) 5.84(2) ?
  Ti221 O11 . 1_6455 5.740(17) 5.740(17) 5.740(17) ?
  Ti221 O11 . 1_6545 5.886(16) 5.886(16) 5.886(16) ?
  Ti221 O11 . 1_6555 1.99(2) 1.99(2) 1.99(2) ?
  Ti221 O11 . 1_6565 5.884(16) 5.884(16) 5.884(16) ?
  Ti221 O11 . 3_6665 2.03(2) 2.03(2) 2.03(2) ?
  Ti221 O11 . 3_6675 5.728(16) 5.728(16) 5.728(16) ?
  Ti221 O11 . 3_7665 5.88(2) 5.88(2) 5.88(2) ?
  Ti221 O21 . 1_6455 5.40(2) 5.40(2) 5.40(2) ?
  Ti221 O21 . 1_6545 5.96(3) 5.96(3) 5.96(3) ?
  Ti221 O21 . 1_6555 0.69(3) 0.69(3) 0.69(3) ?
  Ti221 O21 . 1_6565 5.17(3) 5.17(3) 5.17(3) ?
  Ti221 O21 . 3_6655 4.91(2) 4.91(2) 4.91(2) ?
  Ti221 O21 . 3_6665 1.69(2) 1.69(2) 1.69(2) ?
  Ti221 O21 . 3_6765 4.732(11) 4.732(11) 4.732(11) ?
  Ti221 O21 . 8_5655 5.886(11) 5.886(11) 5.886(11) ?
  Ti221 O31 . 1_4555 3.80(3) 3.80(3) 3.80(3) ?
  Ti221 O31 . 1_4565 5.98(3) 5.98(3) 5.98(3) ?
  Ti221 O31 . 1_5455 5.84(2) 5.84(2) 5.84(2) ?
  Ti221 O31 . . 4.25(3) 4.25(3) 4.25(3) ?
  Ti221 O31 . 3_7655 5.16(2) 5.16(2) 5.16(2) ?
  Ti221 O31 . 3_7665 2.79(2) 2.79(2) 2.79(2) ?
  Ti221 O31 . 3_7765 4.694(11) 4.694(11) 4.694(11) ?
  Ti221 O31 . 3_8665 5.50(2) 5.50(2) 5.50(2) ?
  Ti221 O31 . 8_4655 5.855(11) 5.855(11) 5.855(11) ?
  Fe221 Fe221 . 1_5545 5.537(3) 5.537(3) 5.537(3) ?
  Fe221 Fe221 . 1_5565 5.537(3) 5.537(3) 5.537(3) ?
  Fe221 Fe221 . 3_7565 5.853(3) 5.853(3) 5.853(3) ?
  Fe221 O11 . . 5.84(2) 5.84(2) 5.84(2) ?
  Fe221 O11 . 1_6455 5.740(17) 5.740(17) 5.740(17) ?
  Fe221 O11 . 1_6545 5.886(16) 5.886(16) 5.886(16) ?
  Fe221 O11 . 1_6555 1.99(2) 1.99(2) 1.99(2) ?
  Fe221 O11 . 1_6565 5.884(16) 5.884(16) 5.884(16) ?
  Fe221 O11 . 3_6665 2.03(2) 2.03(2) 2.03(2) ?
  Fe221 O11 . 3_6675 5.728(16) 5.728(16) 5.728(16) ?
  Fe221 O11 . 3_7665 5.88(2) 5.88(2) 5.88(2) ?
  Fe221 O21 . 1_6455 5.40(2) 5.40(2) 5.40(2) ?
  Fe221 O21 . 1_6545 5.96(3) 5.96(3) 5.96(3) ?
  Fe221 O21 . 1_6555 0.69(3) 0.69(3) 0.69(3) ?
  Fe221 O21 . 1_6565 5.17(3) 5.17(3) 5.17(3) ?
  Fe221 O21 . 3_6655 4.91(2) 4.91(2) 4.91(2) ?
  Fe221 O21 . 3_6665 1.69(2) 1.69(2) 1.69(2) ?
  Fe221 O21 . 3_6765 4.732(11) 4.732(11) 4.732(11) ?
  Fe221 O21 . 8_5655 5.886(11) 5.886(11) 5.886(11) ?
  Fe221 O31 . 1_4555 3.80(3) 3.80(3) 3.80(3) ?
  Fe221 O31 . 1_4565 5.98(3) 5.98(3) 5.98(3) ?
  Fe221 O31 . 1_5455 5.84(2) 5.84(2) 5.84(2) ?
  Fe221 O31 . . 4.25(3) 4.25(3) 4.25(3) ?
  Fe221 O31 . 3_7655 5.16(2) 5.16(2) 5.16(2) ?
  Fe221 O31 . 3_7665 2.79(2) 2.79(2) 2.79(2) ?
  Fe221 O31 . 3_7765 4.694(11) 4.694(11) 4.694(11) ?
  Fe221 O31 . 3_8665 5.50(2) 5.50(2) 5.50(2) ?
  Fe221 O31 . 8_4655 5.855(11) 5.855(11) 5.855(11) ?
  O11 O11 . 1_5455 5.57(2) 5.57(2) 5.57(2) ?
  O11 O11 . 1_5545 5.54(2) 5.54(2) 5.54(2) ?
  O11 O11 . 1_5565 5.54(2) 5.54(2) 5.54(2) ?
  O11 O11 . 1_5655 5.57(2) 5.57(2) 5.57(2) ?
  O11 O11 . 3_5665 4.01(3) 4.01(3) 4.01(3) ?
  O11 O11 . 3_6665 3.93(3) 3.93(3) 3.93(3) ?
  O11 O21 . 1_5455 5.13(2) 4.80(2) 5.46(3) ?
  O11 O21 . . 1.81(3) 1.25(3) 2.37(3) ?
  O11 O21 . 1_5565 5.11(3) 4.57(3) 5.65(3) ?
  O11 O21 . 1_6555 6.37(3) 5.52(3) 7.22(3) ?
  O11 O21 . 3_5655 5.71(3) 5.64(3) 5.78(3) ?
  O11 O21 . 3_5665 2.69(3) 1.89(3) 3.49(3) ?
  O11 O21 . 3_5765 5.74(2) 5.71(2) 5.77(3) ?
  O11 O21 . 3_6665 5.49(3) 4.72(3) 6.27(3) ?
  O11 O21 . 3_6765 6.12(3) 5.66(2) 6.58(3) ?
  O11 O31 . 1_3555 6.58(3) 5.73(3) 7.42(3) ?
  O11 O31 . 1_4455 5.16(2) 4.83(2) 5.48(3) ?
  O11 O31 . 1_4555 1.85(3) 1.37(3) 2.33(3) ?
  O11 O31 . 1_4565 4.75(3) 4.32(3) 5.18(3) ?
  O11 O31 . 3_6665 5.45(3) 4.68(3) 6.21(3) ?
  O11 O31 . 3_6765 6.09(2) 5.63(2) 6.54(3) ?
  O11 O31 . 3_7655 5.45(3) 5.24(3) 5.66(3) ?
  O11 O31 . 3_7665 2.83(3) 2.03(3) 3.64(3) ?
  O11 O31 . 3_7765 5.81(2) 5.79(2) 5.84(3) ?
  O21 O21 . 1_5455 5.40(3) 4.93(2) 5.87(4) ?
  O21 O21 . 1_5545 5.54(3) 5.537(16) 5.537(16) ?
  O21 O21 . 1_5565 5.54(3) 5.537(16) 5.537(16) ?
  O21 O21 . 1_5655 5.40(3) 4.93(2) 5.87(4) ?
  O21 O21 . 2_5645 3.703(16) 3.703(16) 3.703(16) ?
  O21 O21 . 2_5655 3.703(16) 3.703(16) 3.703(16) ?
  O21 O21 . 3_5655 4.55(3) 4.55(3) 4.55(3) ?
  O21 O21 . 3_5665 1.94(3) 1.94(3) 1.94(3) ?
  O21 O21 . 3_5755 5.99(3) 5.79(3) 6.39(3) ?
  O21 O21 . 3_5765 4.69(3) 4.31(3) 5.45(3) ?
  O21 O21 . 4_5455 5.35(3) 5.35(3) 5.35(3) ?
  O21 O21 . 8_4655 5.35(3) 5.35(3) 5.35(3) ?
  O21 O31 . 1_3555 6.00(3) 3.37(4) 7.987(15) ?
  O21 O31 . 1_4455 5.61(3) 4.90(2) 6.33(3) ?
  O21 O31 . 1_4545 6.36(3) 5.716(15) 7.48(4) ?
  O21 O31 . 1_4555 1.99(3) 0.238(15) 4.51(4) ?
  O21 O31 . 1_4565 5.86(3) 5.362(15) 6.79(4) ?
  O21 O31 . 1_4655 5.58(3) 4.91(2) 6.25(3) ?
  O21 O31 . 2_6645 3.765(15) 3.765(15) 3.765(15) ?
  O21 O31 . 2_6655 3.495(15) 3.495(15) 3.495(15) ?
  O21 O31 . 3_6655 5.75(3) 4.74(3) 6.75(3) ?
  O21 O31 . 3_6665 4.32(3) 2.84(3) 5.79(3) ?
  O21 O31 . 3_6755 6.84(3) 5.61(3) 8.08(3) ?
  O21 O31 . 3_6765 5.96(3) 4.29(3) 7.42(3) ?
  O21 O31 . 3_7655 5.88(3) 4.67(3) 7.09(3) ?
  O21 O31 . 3_7665 4.56(3) 3.13(3) 5.98(3) ?
  O21 O31 . 3_7755 6.96(3) 5.55(3) 8.35(3) ?
  O21 O31 . 3_7765 6.14(3) 4.54(3) 7.53(3) ?
  O21 O31 . 8_3655 5.32(3) 5.32(3) 5.32(3) ?
  O31 O31 . 1_5455 5.36(3) 4.92(2) 5.80(3) ?
  O31 O31 . 1_5545 5.54(3) 5.537(15) 5.537(15) ?
  O31 O31 . 1_5565 5.54(3) 5.537(15) 5.537(15) ?
  O31 O31 . 1_5655 5.36(3) 4.92(2) 5.80(3) ?
  O31 O31 . 2_7645 3.558(15) 3.558(15) 3.558(15) ?
  O31 O31 . 2_7655 3.558(15) 3.558(15) 3.558(15) ?
  O31 O31 . 3_8655 3.98(3) 3.98(3) 3.98(3) ?
  O31 O31 . 3_8665 2.51(3) 2.51(3) 2.51(3) ?
  O31 O31 . 3_8755 5.72(3) 5.47(3) 6.23(3) ?
  O31 O31 . 3_8765 5.02(3) 4.67(3) 5.72(3) ?

#=======================================================================
data_n5_150K
#=======================================================================

# 5. CHEMICAL DATA

_chemical_name_systematic
?
_chemical_name_common                    ?
_chemical_formula_moiety                 ?
_chemical_formula_structural             ?
_chemical_formula_analytical             ?
_chemical_formula_iupac                  ?
_chemical_formula_sum                    'Fe0.615 La3.333 O11.333 Ti2.718'
_chemical_formula_weight                 808.8
_chemical_melting_point                  ?
_chemical_compound_source                ?
_chemical_absolute_configuration         .

#=======================================================================

# 6. CRYSTAL DATA

_symmetry_cell_setting                   monoclinic
_space_group_ssg_name                    'X21/b(\a\b0)00'
loop_
 _space_group_symop_ssg_id
 _space_group_symop_ssg_operation_algebraic
 1   x1,x2,x3,x4
 2   -x1+1/4,-x2,x3+1/2,-x4+1/4
 3   -x1,-x2,-x3,-x4+1/2
 4   x1,x2+1/2,-x3+1/2,x4
 5   x1+1/2,x2,x3,x4+1/2
 6   -x1+3/4,-x2,x3+1/2,-x4+3/4
 7   -x1+1/2,-x2,-x3,-x4
 8   x1+1/2,x2+1/2,-x3+1/2,x4+1/2
 9   x1+3/4,x2+1/2,x3,x4+1/4
 10  -x1,-x2+1/2,x3+1/2,-x4+1/2
 11  -x1+3/4,-x2+1/2,-x3,-x4+3/4
 12  x1+3/4,x2,-x3+1/2,x4+1/4
 13  x1+1/4,x2+1/2,x3,x4+3/4
 14  -x1+1/2,-x2+1/2,x3+1/2,-x4
 15  -x1+1/4,-x2+1/2,-x3,-x4+1/4
 16  x1+1/4,x2,-x3+1/2,x4+3/4
_cell_length_a                           7.8266(15)
_cell_length_b                           5.2203(13)
_cell_length_c                           5.5404(11)
_cell_angle_alpha                        90
_cell_angle_beta                         90
_cell_angle_gamma                        89.988(16)
_cell_volume                             226.37(8)

loop_
 _jana_cell_twin_matrix_id
 _jana_cell_twin_volume_fraction
 _jana_cell_twin_matrix_1_1
 _jana_cell_twin_matrix_1_2
 _jana_cell_twin_matrix_1_3
 _jana_cell_twin_matrix_2_1
 _jana_cell_twin_matrix_2_2
 _jana_cell_twin_matrix_2_3
 _jana_cell_twin_matrix_3_1
 _jana_cell_twin_matrix_3_2
 _jana_cell_twin_matrix_3_3
1 0.6184(10)
1 0 0
0 1 0
0 0 1
2 0.3816(10)
1 0 0
0 -1 0
0 0 -1

_cell_modulation_dimension               1
loop_
 _cell_wave_vector_seq_id
 _cell_wave_vector_x
 _cell_wave_vector_y
 _cell_wave_vector_z
 1  0.000000  0.083333  0.000000

_jana_cell_commen_supercell_matrix_1_1   1
_jana_cell_commen_supercell_matrix_1_2   0
_jana_cell_commen_supercell_matrix_1_3   0
_jana_cell_commen_supercell_matrix_2_1   0
_jana_cell_commen_supercell_matrix_2_2   12
_jana_cell_commen_supercell_matrix_2_3   0
_jana_cell_commen_supercell_matrix_3_1   0
_jana_cell_commen_supercell_matrix_3_2   0
_jana_cell_commen_supercell_matrix_3_3   1
_jana_cell_commen_t_section_1            0

_cell_formula_units_Z                    1

_cell_measurement_reflns_used            ?
_cell_measurement_theta_min              ?
_cell_measurement_theta_max              ?
_cell_measurement_temperature            150
_cell_special_details
?

_exptl_crystal_density_diffrn            5.931
_exptl_crystal_density_meas              ?
_exptl_crystal_density_method            ?
_exptl_crystal_F_000                     178

_exptl_absorpt_coefficient_mu            18.657
_exptl_crystal_description               ?
_exptl_crystal_size_max                  ?
_exptl_crystal_size_mid                  ?
_exptl_crystal_size_min                  ?
_exptl_crystal_size_rad                  ?
_exptl_crystal_colour                    ?
_exptl_absorpt_correction_type           ?
_exptl_absorpt_process_details           ?
_exptl_absorpt_correction_T_min          ?
_exptl_absorpt_correction_T_max          ?

#=======================================================================

# 7. EXPERIMENTAL DATA

_exptl_special_details                   ?

_diffrn_ambient_temperature              150
_diffrn_source                           ?
_diffrn_source_power                     ?
_diffrn_source_voltage                   ?
_diffrn_source_current                   ?
_diffrn_radiation_type                   'Mo K\a'
_diffrn_radiation_source                 'X-ray tube'
_diffrn_radiation_wavelength             0.71069
_diffrn_radiation_monochromator          graphite
_diffrn_measurement_device               'four-cycle diffractometer'
_diffrn_measurement_device_type          'Bruker CCD'
_diffrn_detector                         ?
_diffrn_detector_area_resol_mean         ?
_diffrn_measurement_method               ?
_diffrn_measurement_specimen_support     ?

_diffrn_reflns_number                    50994
_diffrn_reflns_theta_min                 2.6
_diffrn_reflns_theta_max                 36.4
_diffrn_reflns_theta_full                34.11
_diffrn_measured_fraction_theta_max      0.94
_diffrn_measured_fraction_theta_full     0.98
_diffrn_reflns_av_R_equivalents          0.0381
_diffrn_reflns_av_sigmaI/netI            0.0214
_diffrn_reflns_limit_h_min               -13
_diffrn_reflns_limit_h_max               13
_diffrn_reflns_limit_k_min               -8
_diffrn_reflns_limit_k_max               8
_diffrn_reflns_limit_l_min               -9
_diffrn_reflns_limit_l_max               9
_diffrn_reflns_limit_index_m_1_min       -5
_diffrn_reflns_limit_index_m_1_max       6
_diffrn_reflns_reduction_process         ?

_diffrn_standards_number                 ?
_diffrn_standards_interval_count         ?
_diffrn_standards_interval_time          ?
_diffrn_standards_decay_%                ?
loop_
_diffrn_standard_refln_index_h
_diffrn_standard_refln_index_k
_diffrn_standard_refln_index_l
  ? ? ?

_diffrn_radiation_probe                  x-ray

#=======================================================================

# 8. REFINEMENT DATA

_refine_special_details
?

_reflns_number_total                     6469
_reflns_number_gt                        6210
_reflns_threshold_expression             'I>3\s(I)'

_refine_ls_structure_factor_coef         F
_refine_ls_R_factor_gt                   0.0287
_refine_ls_wR_factor_gt                  0.0428
_refine_ls_R_factor_all                  0.0305
_refine_ls_wR_factor_ref                 0.0431
_refine_ls_goodness_of_fit_ref           2.66
_refine_ls_goodness_of_fit_gt            2.70
_refine_ls_restrained_S_gt               ?
_refine_ls_restrained_S_all              ?
_refine_ls_number_reflns                 6469
_refine_ls_number_parameters             147
_refine_ls_number_restraints             0
_refine_ls_number_constraints            8
_refine_ls_weighting_scheme              sigma
_refine_ls_weighting_details             'w=1/(\s^2^(F)+0.0001F^2^)'
_refine_ls_hydrogen_treatment            ?
_refine_ls_shift/su_max                  0.0149
_refine_ls_shift/su_mean                 0.0004
_refine_diff_density_max                 4.28
_refine_diff_density_min                 -3.18
_refine_ls_extinction_method
 'B-C type 1 Gaussian isotropic (Becker & Coppens, 1974)'
_refine_ls_extinction_coef               1430(60)
_refine_ls_abs_structure_details         ?
_refine_ls_abs_structure_Flack           ?
_refine_ls_abs_structure_Rogers          ?

loop_
 _atom_type_symbol
 _atom_type_scat_dispersion_real
 _atom_type_scat_dispersion_imag
 _atom_type_scat_source
 Fe  0.3463  0.8444
 'International Tables Vol C tables 4.2.6.8 and 6.1.1.1'
 La -0.2871  2.4523
 'International Tables Vol C tables 4.2.6.8 and 6.1.1.1'
 O   0.0106  0.0060
 'International Tables Vol C tables 4.2.6.8 and 6.1.1.1'
 Ti  0.2776  0.4457
 'International Tables Vol C tables 4.2.6.8 and 6.1.1.1'

_computing_data_collection               ?
_computing_cell_refinement               ?
_computing_data_reduction                ?
_computing_structure_solution            ?
_computing_structure_refinement          ?
_computing_molecular_graphics            ?
_computing_publication_material          ?

#=======================================================================

# 9. ATOMIC COORDINATES AND DISPLACEMENT PARAMETERS

loop_
 _atom_site_label
 _atom_site_type_symbol
 _atom_site_fract_x
 _atom_site_fract_y
 _atom_site_fract_z
 _atom_site_adp_type
 _atom_site_U_iso_or_equiv
 _atom_site_symmetry_multiplicity
 _atom_site_occupancy
 _atom_site_calc_flag
 _atom_site_refinement_flags
 _atom_site_disorder_assembly
 _atom_site_disorder_group
  La1 La -0.000404(18) -0.01712(3) 0.00283(2) Uani 0.00209(4) 16 0.125 d . . .
  La2 La -0.00129(4) 0.29525(4) -0.09007(4) Uani 0.00240(5) 16 0.0417 d . . .
  La3 La -0.00303(4) -0.22652(5) 0.04591(5) Uani 0.00552(6) 16 0.0417 d . . .
  Ti11 Ti 0.25 0 0.5 Uani 0.00127(11) 8 0.0216(9) d . . .
  Fe11 Fe 0.25 0 0.5 Uani 0.00127(11) 8 0.0200(9) d . . .
  Ti12 Ti 0.25 0 0.5 Uani 0.00127(11) 16 0.0356(7) d . . .
  Fe12 Fe 0.25 0 0.5 Uani 0.00127(11) 16 0.0061(7) d . . .
  Ti13 Ti 0.25 0 0.5 Uani 0.00127(11) 16 0.0403(6) d . . .
  Fe13 Fe 0.25 0 0.5 Uani 0.00127(11) 16 0.0014(6) d . . .
  Ti21 Ti 0.75 0 0.5 Uani 0.00110(10) 8 0.0216(9) d . . .
  Fe21 Fe 0.75 0 0.5 Uani 0.00110(10) 8 0.0200(9) d . . .
  Ti22 Ti 0.75 0 0.5 Uani 0.00110(10) 16 0.0365(7) d . . .
  Fe22 Fe 0.75 0 0.5 Uani 0.00110(10) 16 0.0051(7) d . . .
  Ti23 Ti 0.75 0 0.5 Uani 0.00110(10) 16 0.0389(6) d . . .
  Fe23 Fe 0.75 0 0.5 Uani 0.00110(10) 16 0.0028(6) d . . .
  O1 O -0.0001(2) 0.0035(3) 0.5550(3) Uani 0.0037(3) 16 0.2083 d . . .
  O2 O 0.2262(2) 0.2147(3) 0.2076(2) Uani 0.0037(3) 16 0.25 d . . .
  O3 O 0.77522(19) 0.2053(3) 0.2024(2) Uani 0.0038(3) 16 0.25 d . . .

loop_
 _atom_site_aniso_label
 _atom_site_aniso_type_symbol
 _atom_site_aniso_U_11
 _atom_site_aniso_U_22
 _atom_site_aniso_U_33
 _atom_site_aniso_U_12
 _atom_site_aniso_U_13
 _atom_site_aniso_U_23
 La1 La 0.00132(7) 0.00304(8) 0.00192(7) 0.00022(8) -0.00007(6) -0.00106(3)
 La2 La 0.00075(8) 0.00447(10) 0.00198(8) -0.00059(10) 0.00061(10) -0.00189(7)
 La3 La 0.00060(8) 0.01097(12) 0.00500(9) 0.00070(11) -0.00005(12) -0.00439(8)
 Ti11 Ti 0.00144(17) 0.0013(2) 0.00109(17) 0.0005(3) -0.00083(19) -0.00023(12)
 Fe11 Fe 0.00144(17) 0.0013(2) 0.00109(17) 0.0005(3) -0.00083(19) -0.00023(12)
 Ti12 Ti 0.00144(17) 0.0013(2) 0.00109(17) 0.0005(3) -0.00083(19) -0.00023(12)
 Fe12 Fe 0.00144(17) 0.0013(2) 0.00109(17) 0.0005(3) -0.00083(19) -0.00023(12)
 Ti13 Ti 0.00144(17) 0.0013(2) 0.00109(17) 0.0005(3) -0.00083(19) -0.00023(12)
 Fe13 Fe 0.00144(17) 0.0013(2) 0.00109(17) 0.0005(3) -0.00083(19) -0.00023(12)
 Ti21 Ti 0.00146(17) 0.0012(2) 0.00065(17) 0.0005(3) -0.00065(19) 0.00020(12)
 Fe21 Fe 0.00146(17) 0.0012(2) 0.00065(17) 0.0005(3) -0.00065(19) 0.00020(12)
 Ti22 Ti 0.00146(17) 0.0012(2) 0.00065(17) 0.0005(3) -0.00065(19) 0.00020(12)
 Fe22 Fe 0.00146(17) 0.0012(2) 0.00065(17) 0.0005(3) -0.00065(19) 0.00020(12)
 Ti23 Ti 0.00146(17) 0.0012(2) 0.00065(17) 0.0005(3) -0.00065(19) 0.00020(12)
 Fe23 Fe 0.00146(17) 0.0012(2) 0.00065(17) 0.0005(3) -0.00065(19) 0.00020(12)
 O1 O 0.0022(5) 0.0033(6) 0.0055(6) -0.0006(6) 0.0001(4) -0.0005(4)
 O2 O 0.0037(6) 0.0039(6) 0.0035(5) -0.0002(4) 0.0002(4) 0.0004(4)
 O3 O 0.0054(6) 0.0037(6) 0.0022(5) 0.0000(4) 0.0005(4) 0.0017(4)


loop_
 _atom_site_Fourier_wave_vector_seq_id
 _jana_atom_site_Fourier_wave_vector_q1_coeff
    1    1
    2    2
    3    3
    4    4
    5    5
    6    6

loop_
 _jana_atom_site_crenel_ortho_func_id
 _jana_atom_site_crenel_ortho_func_c
 _jana_atom_site_crenel_ortho_func_w
 _jana_atom_site_crenel_ortho_func_eps
 1  0.000000  0.125000  0.950000
 2  0.000000  0.208333  0.950000
 3  0.000000  0.250000  0.950000
 4  0.000000  0.250000  0.950000

loop_
_atom_site_occ_Fourier_atom_site_label
_atom_site_occ_Fourier_wave_vector_seq_id
_atom_site_occ_Fourier_param_cos
_atom_site_occ_Fourier_param_sin
 ? ? ? ?

loop_
_jana_atom_site_occ_Legendre_atom_site_label
_jana_atom_site_occ_Legendre_param_order
_jana_atom_site_occ_Legendre_param_coeff
 ? ? ?

loop_
_jana_atom_site_occ_crenel_ortho_atom_site_label
_jana_atom_site_occ_crenel_ortho_param_order
_jana_atom_site_occ_crenel_ortho_id
_jana_atom_site_occ_crenel_ortho_param_coeff
 ? ? ? ?

loop_
 _atom_site_occ_special_func_atom_site_label
 _atom_site_occ_special_func_crenel_c
 _atom_site_occ_special_func_crenel_w
 La1  0  0.125
 La2  0.107894(4)  0.0417
 La3 -0.102169(4)  0.0417
 Ti11  0  0.0417
 Fe11  0  0.0417
 Ti12  0.0417  0.0417
 Fe12  0.0417  0.0417
 Ti13  0.0833  0.0417
 Fe13  0.0833  0.0417
 Ti21  0  0.0417
 Fe21  0  0.0417
 Ti22  0.0417  0.0417
 Fe22  0.0417  0.0417
 Ti23  0.0833  0.0417
 Fe23  0.0833  0.0417
 O1  0  0.2083
 O2  0  0.25
 O3  0  0.25

loop_
 _atom_site_displace_Fourier_atom_site_label
 _atom_site_displace_Fourier_axis
 _atom_site_displace_Fourier_wave_vector_seq_id
 _atom_site_displace_Fourier_param_cos
 _atom_site_displace_Fourier_param_sin
 Ti11  x  1     0               -0.0063(3)
 Ti11  y  1     0                0.1267(3)
 Ti11  z  1     0               -0.0775(3)
 Ti11  x  2     0                0
 Ti11  y  2     0                0
 Ti11  z  2     0                0
 Ti11  x  3     0                0
 Ti11  y  3     0                0
 Ti11  z  3     0                0
 Ti11  x  4     0                0
 Ti11  y  4     0                0
 Ti11  z  4     0                0
 Ti11  x  5     0                0
 Ti11  y  5     0                0
 Ti11  z  5     0                0
 Ti11  x  6     0                0.00161(18)
 Ti11  y  6     0                0.02455(15)
 Ti11  z  6     0                0.02839(13)
 Fe11  x  1     0               -0.0063(3)
 Fe11  y  1     0                0.1267(3)
 Fe11  z  1     0               -0.0775(3)
 Fe11  x  2     0                0
 Fe11  y  2     0                0
 Fe11  z  2     0                0
 Fe11  x  3     0                0
 Fe11  y  3     0                0
 Fe11  z  3     0                0
 Fe11  x  4     0                0
 Fe11  y  4     0                0
 Fe11  z  4     0                0
 Fe11  x  5     0                0
 Fe11  y  5     0                0
 Fe11  z  5     0                0
 Fe11  x  6     0                0.00161(18)
 Fe11  y  6     0                0.02455(15)
 Fe11  z  6     0                0.02839(13)
 Ti12  x  1     0               -0.0063(3)
 Ti12  y  1     0                0.1267(3)
 Ti12  z  1     0               -0.0775(3)
 Ti12  x  2     0                0
 Ti12  y  2     0                0
 Ti12  z  2     0                0
 Ti12  x  3     0                0
 Ti12  y  3     0                0
 Ti12  z  3     0                0
 Ti12  x  4     0                0
 Ti12  y  4     0                0
 Ti12  z  4     0                0
 Ti12  x  5     0                0
 Ti12  y  5     0                0
 Ti12  z  5     0                0
 Ti12  x  6     0                0.00161(18)
 Ti12  y  6     0                0.02455(15)
 Ti12  z  6     0                0.02839(13)
 Fe12  x  1     0               -0.0063(3)
 Fe12  y  1     0                0.1267(3)
 Fe12  z  1     0               -0.0775(3)
 Fe12  x  2     0                0
 Fe12  y  2     0                0
 Fe12  z  2     0                0
 Fe12  x  3     0                0
 Fe12  y  3     0                0
 Fe12  z  3     0                0
 Fe12  x  4     0                0
 Fe12  y  4     0                0
 Fe12  z  4     0                0
 Fe12  x  5     0                0
 Fe12  y  5     0                0
 Fe12  z  5     0                0
 Fe12  x  6     0                0.00161(18)
 Fe12  y  6     0                0.02455(15)
 Fe12  z  6     0                0.02839(13)
 Ti13  x  1     0               -0.0063(3)
 Ti13  y  1     0                0.1267(3)
 Ti13  z  1     0               -0.0775(3)
 Ti13  x  2     0                0
 Ti13  y  2     0                0
 Ti13  z  2     0                0
 Ti13  x  3     0                0
 Ti13  y  3     0                0
 Ti13  z  3     0                0
 Ti13  x  4     0                0
 Ti13  y  4     0                0
 Ti13  z  4     0                0
 Ti13  x  5     0                0
 Ti13  y  5     0                0
 Ti13  z  5     0                0
 Ti13  x  6     0                0.00161(18)
 Ti13  y  6     0                0.02455(15)
 Ti13  z  6     0                0.02839(13)
 Fe13  x  1     0               -0.0063(3)
 Fe13  y  1     0                0.1267(3)
 Fe13  z  1     0               -0.0775(3)
 Fe13  x  2     0                0
 Fe13  y  2     0                0
 Fe13  z  2     0                0
 Fe13  x  3     0                0
 Fe13  y  3     0                0
 Fe13  z  3     0                0
 Fe13  x  4     0                0
 Fe13  y  4     0                0
 Fe13  z  4     0                0
 Fe13  x  5     0                0
 Fe13  y  5     0                0
 Fe13  z  5     0                0
 Fe13  x  6     0                0.00161(18)
 Fe13  y  6     0                0.02455(15)
 Fe13  z  6     0                0.02839(13)
 Ti21  x  1     0                0.0017(3)
 Ti21  y  1     0                0.1440(3)
 Ti21  z  1     0               -0.0853(3)
 Ti21  x  2     0                0
 Ti21  y  2     0                0
 Ti21  z  2     0                0
 Ti21  x  3     0                0
 Ti21  y  3     0                0
 Ti21  z  3     0                0
 Ti21  x  4     0                0
 Ti21  y  4     0                0
 Ti21  z  4     0                0
 Ti21  x  5     0                0
 Ti21  y  5     0                0
 Ti21  z  5     0                0
 Ti21  x  6     0               -0.00235(18)
 Ti21  y  6     0                0.02337(15)
 Ti21  z  6     0                0.02903(13)
 Fe21  x  1     0                0.0017(3)
 Fe21  y  1     0                0.1440(3)
 Fe21  z  1     0               -0.0853(3)
 Fe21  x  2     0                0
 Fe21  y  2     0                0
 Fe21  z  2     0                0
 Fe21  x  3     0                0
 Fe21  y  3     0                0
 Fe21  z  3     0                0
 Fe21  x  4     0                0
 Fe21  y  4     0                0
 Fe21  z  4     0                0
 Fe21  x  5     0                0
 Fe21  y  5     0                0
 Fe21  z  5     0                0
 Fe21  x  6     0               -0.00235(18)
 Fe21  y  6     0                0.02337(15)
 Fe21  z  6     0                0.02903(13)
 Ti22  x  1     0                0.0017(3)
 Ti22  y  1     0                0.1440(3)
 Ti22  z  1     0               -0.0853(3)
 Ti22  x  2     0                0
 Ti22  y  2     0                0
 Ti22  z  2     0                0
 Ti22  x  3     0                0
 Ti22  y  3     0                0
 Ti22  z  3     0                0
 Ti22  x  4     0                0
 Ti22  y  4     0                0
 Ti22  z  4     0                0
 Ti22  x  5     0                0
 Ti22  y  5     0                0
 Ti22  z  5     0                0
 Ti22  x  6     0               -0.00235(18)
 Ti22  y  6     0                0.02337(15)
 Ti22  z  6     0                0.02903(13)
 Fe22  x  1     0                0.0017(3)
 Fe22  y  1     0                0.1440(3)
 Fe22  z  1     0               -0.0853(3)
 Fe22  x  2     0                0
 Fe22  y  2     0                0
 Fe22  z  2     0                0
 Fe22  x  3     0                0
 Fe22  y  3     0                0
 Fe22  z  3     0                0
 Fe22  x  4     0                0
 Fe22  y  4     0                0
 Fe22  z  4     0                0
 Fe22  x  5     0                0
 Fe22  y  5     0                0
 Fe22  z  5     0                0
 Fe22  x  6     0               -0.00235(18)
 Fe22  y  6     0                0.02337(15)
 Fe22  z  6     0                0.02903(13)
 Ti23  x  1     0                0.0017(3)
 Ti23  y  1     0                0.1440(3)
 Ti23  z  1     0               -0.0853(3)
 Ti23  x  2     0                0
 Ti23  y  2     0                0
 Ti23  z  2     0                0
 Ti23  x  3     0                0
 Ti23  y  3     0                0
 Ti23  z  3     0                0
 Ti23  x  4     0                0
 Ti23  y  4     0                0
 Ti23  z  4     0                0
 Ti23  x  5     0                0
 Ti23  y  5     0                0
 Ti23  z  5     0                0
 Ti23  x  6     0               -0.00235(18)
 Ti23  y  6     0                0.02337(15)
 Ti23  z  6     0                0.02903(13)
 Fe23  x  1     0                0.0017(3)
 Fe23  y  1     0                0.1440(3)
 Fe23  z  1     0               -0.0853(3)
 Fe23  x  2     0                0
 Fe23  y  2     0                0
 Fe23  z  2     0                0
 Fe23  x  3     0                0
 Fe23  y  3     0                0
 Fe23  z  3     0                0
 Fe23  x  4     0                0
 Fe23  y  4     0                0
 Fe23  z  4     0                0
 Fe23  x  5     0                0
 Fe23  y  5     0                0
 Fe23  z  5     0                0
 Fe23  x  6     0               -0.00235(18)
 Fe23  y  6     0                0.02337(15)
 Fe23  z  6     0                0.02903(13)

loop_
_jana_atom_site_displace_Legendre_atom_site_label
_jana_atom_site_displace_Legendre_axis
_jana_atom_site_displace_Legendre_param_order
_jana_atom_site_displace_Legendre_param_coeff
 ? ? ? ?

loop_
 _jana_atom_site_displace_crenel_ortho_atom_site_label
 _jana_atom_site_displace_crenel_ortho_axis
 _jana_atom_site_displace_crenel_ortho_id
 _jana_atom_site_displace_crenel_ortho_param_order
 _jana_atom_site_displace_crenel_ortho_param_coeff
 La1   x  1  1 -0.00049(4)
 La1   y  1  1  0.03201(3)
 La1   z  1  1  0.00230(2)
 La1   x  1  2  0.00017(2)
 La1   y  1  2  0.00131(3)
 La1   z  1  2 -0.00087(3)
 O1    x  2  1  0.0003(3)
 O1    y  2  1  0.0109(3)
 O1    z  2  1 -0.0134(3)
 O1    x  2  2 -0.0005(3)
 O1    y  2  2  0.0138(3)
 O1    z  2  2  0.0005(3)
 O1    x  2  3 -0.0010(3)
 O1    y  2  3  0.0020(4)
 O1    z  2  3  0.0074(3)
 O1    x  2  4  0.0003(3)
 O1    y  2  4 -0.0141(4)
 O1    z  2  4  0.0020(4)
 O2    x  3  1 -0.0006(2)
 O2    y  3  1  0.0341(3)
 O2    z  3  1  0.0036(3)
 O2    x  3  2 -0.0096(2)
 O2    y  3  2 -0.0058(3)
 O2    z  3  2  0.0149(3)
 O2    x  3  3  0.0116(3)
 O2    y  3  3 -0.0058(4)
 O2    z  3  3 -0.0082(3)
 O2    x  3  4  0.0052(2)
 O2    y  3  4  0.0085(4)
 O2    z  3  4 -0.0023(3)
 O2    x  3  5 -0.0117(3)
 O2    y  3  5  0.0056(5)
 O2    z  3  5  0.0044(4)
 O2    x  3  6  0
 O2    y  3  6  0
 O2    z  3  6  0
 O3    x  4  1 -0.0001(2)
 O3    y  4  1  0.0347(3)
 O3    z  4  1  0.0011(3)
 O3    x  4  2  0.0055(2)
 O3    y  4  2  0.0015(3)
 O3    z  4  2  0.0173(3)
 O3    x  4  3 -0.0119(3)
 O3    y  4  3 -0.0047(4)
 O3    z  4  3 -0.0062(3)
 O3    x  4  4 -0.0022(3)
 O3    y  4  4  0.0058(4)
 O3    z  4  4 -0.0015(3)
 O3    x  4  5  0.0126(3)
 O3    y  4  5  0.0046(5)
 O3    z  4  5  0.0025(4)
 O3    x  4  6  0
 O3    y  4  6  0
 O3    z  4  6  0

loop_
 _jana_atom_site_U_crenel_ortho_atom_site_label
 _jana_atom_site_U_crenel_ortho_tens_elem
 _jana_atom_site_U_crenel_ortho_id
 _jana_atom_site_U_crenel_ortho_param_order
 _jana_atom_site_U_crenel_ortho_param_coeff
 La1   U11  1  1  0.00010(4)
 La1   U22  1  1  0.00081(5)
 La1   U33  1  1  0.00051(5)
 La1   U12  1  1 -0.00038(5)
 La1   U13  1  1  0.00009(4)
 La1   U23  1  1 -0.00019(4)
 La1   U11  1  2  0.00065(5)
 La1   U22  1  2 -0.00044(6)
 La1   U33  1  2 -0.00004(5)
 La1   U12  1  2 -0.00040(8)
 La1   U13  1  2  0.00013(9)
 La1   U23  1  2  0.00041(5)


#=======================================================================

# 10. MOLECULAR GEOMETRY


loop_
 _geom_bond_atom_site_label_1
 _geom_bond_atom_site_label_2
 _geom_bond_site_ssg_symmetry_1
 _geom_bond_site_ssg_symmetry_2
 _geom_bond_distance_av
 _geom_bond_distance_min
 _geom_bond_distance_max
 _geom_bond_publ_flag
  La1 Ti11 . 1_5545 3.40122(13) 3.40122(13) 3.40122(13) ?
  La1 Ti11 . . 3.38582(13) 3.38582(13) 3.38582(13) ?
  La1 Fe11 . 1_5545 3.40122(13) 3.40122(13) 3.40122(13) ?
  La1 Fe11 . . 3.38582(13) 3.38582(13) 3.38582(13) ?
  La1 Ti21 . 1_4545 3.39960(13) 3.39960(13) 3.39960(13) ?
  La1 Ti21 . 1_4555 3.38419(13) 3.38419(13) 3.38419(13) ?
  La1 Fe21 . 1_4545 3.39960(13) 3.39960(13) 3.39960(13) ?
  La1 Fe21 . 1_4555 3.38419(13) 3.38419(13) 3.38419(13) ?
  La1 O1 . 1_5545 2.4628(16) 2.4628(16) 2.4628(16) ?
  La1 O1 . . 3.0813(16) 3.0813(16) 3.0813(16) ?
  La1 O2 . . 2.444(8) 2.444(8) 2.444(8) ?
  La1 O2 . 7_5555 2.774(8) 2.774(8) 2.774(8) ?
  La1 O3 . 1_4555 2.423(6) 2.423(6) 2.423(6) ?
  La1 O3 . 7_5555 2.754(6) 2.754(6) 2.754(6) ?
  La1 Ti121 . 6_5545 3.433(3) 3.433(3) 3.433(3) ?
  La1 Fe121 . 6_5545 3.433(3) 3.433(3) 3.433(3) ?
  La1 Ti221 . 6_5545 3.438(3) 3.438(3) 3.438(3) ?
  La1 Fe221 . 6_5545 3.438(3) 3.438(3) 3.438(3) ?
  La1 O11 . 8_4455 2.380(18) 2.380(18) 2.380(18) ?
  La1 O11 . 8_4555 3.169(18) 3.169(18) 3.169(18) ?
  La1 O21 . 8_4455 2.39(2) 2.39(2) 2.39(2) ?
  La1 O31 . 8_3455 2.42(2) 2.42(2) 2.42(2) ?
  La2 Ti13 . 1_5545 3.3788(5) 3.3788(5) 3.3788(5) ?
  La2 Ti13 . 2_5645 3.3606(4) 3.3606(4) 3.3606(4) ?
  La2 Fe13 . 1_5545 3.3788(5) 3.3788(5) 3.3788(5) ?
  La2 Fe13 . 2_5645 3.3606(4) 3.3606(4) 3.3606(4) ?
  La2 Ti23 . 1_4545 3.3776(5) 3.3776(5) 3.3776(5) ?
  La2 Fe23 . 1_4545 3.3776(5) 3.3776(5) 3.3776(5) ?
  La2 O1 . 1_5545 2.538(8) 2.538(8) 2.538(8) ?
  La2 O2 . . 2.440(15) 2.440(15) 2.440(15) ?
  La2 O2 . 2_5645 2.538(15) 2.538(15) 2.538(15) ?
  La2 O2 . 7_5555 3.483(14) 3.483(14) 3.483(14) ?
  La2 O3 . 1_4555 2.384(15) 2.384(15) 2.384(15) ?
  La2 O3 . 7_5555 3.433(13) 3.433(13) 3.433(13) ?
  La2 O21 . 5_4555 3.433(11) 3.433(11) 3.433(11) ?
  La2 O31 . 5_3555 3.461(11) 3.461(11) 3.461(11) ?
  La3 Ti13 . 7_5565 3.4931(5) 3.4931(5) 3.4931(5) ?
  La3 Fe13 . 7_5565 3.4931(5) 3.4931(5) 3.4931(5) ?
  La3 Ti23 . 7_5555 3.4911(5) 3.4911(5) 3.4911(5) ?
  La3 Ti23 . 7_5565 3.4621(5) 3.4621(5) 3.4621(5) ?
  La3 Fe23 . 7_5555 3.4911(5) 3.4911(5) 3.4911(5) ?
  La3 Fe23 . 7_5565 3.4621(5) 3.4621(5) 3.4621(5) ?
  La3 O1 . 1_5545 2.781(8) 2.781(8) 2.781(8) ?
  La3 O1 . . 3.128(8) 3.128(8) 3.128(8) ?
  La3 O2 . . 2.848(14) 2.848(14) 2.848(14) ?
  La3 O2 . 7_5555 2.515(15) 2.515(15) 2.515(15) ?
  La3 O3 . 1_4555 2.776(13) 2.776(13) 2.776(13) ?
  La3 O3 . 7_5555 2.436(15) 2.436(15) 2.436(15) ?
  La3 O3 . 4_4455 3.111(15) 3.111(15) 3.111(15) ?
  La3 O21 . 6_4645 3.48(3) 3.48(3) 3.48(3) ?
  La3 O21 . 8_4455 1.062(11) 1.062(11) 1.062(11) ?
  La3 O31 . 3_6555 3.361(11) 3.361(11) 3.361(11) ?
  La3 O31 . 8_3455 1.167(11) 1.167(11) 1.167(11) ?
  Ti11 Fe11 . . 0 0 0 ?
  Ti11 O1 . . 1.9834(16) 1.9834(16) 1.9834(16) ?
  Ti11 O1 . 7_5565 1.9834(16) 1.9834(16) 1.9834(16) ?
  Ti11 O2 . . 1.970(8) 1.970(8) 1.970(8) ?
  Ti11 O2 . 7_5565 1.970(8) 1.970(8) 1.970(8) ?
  Ti11 La11 . 6_5555 3.2155(10) 3.2155(10) 3.2155(10) ?
  Ti11 La11 . 6_5655 3.4376(9) 3.4376(9) 3.4376(9) ?
  Ti11 La11 . 8_4455 3.4376(9) 3.4376(9) 3.4376(9) ?
  Ti11 La11 . 8_4555 3.2155(10) 3.2155(10) 3.2155(10) ?
  Ti11 O31 . 6_6655 3.12(2) 3.12(2) 3.12(2) ?
  Ti11 O31 . 8_3455 3.12(2) 3.12(2) 3.12(2) ?
  Fe11 O1 . . 1.9834(16) 1.9834(16) 1.9834(16) ?
  Fe11 O1 . 7_5565 1.9834(16) 1.9834(16) 1.9834(16) ?
  Fe11 O2 . . 1.970(8) 1.970(8) 1.970(8) ?
  Fe11 O2 . 7_5565 1.970(8) 1.970(8) 1.970(8) ?
  Fe11 La11 . 6_5555 3.2155(10) 3.2155(10) 3.2155(10) ?
  Fe11 La11 . 6_5655 3.4376(9) 3.4376(9) 3.4376(9) ?
  Fe11 La11 . 8_4455 3.4376(9) 3.4376(9) 3.4376(9) ?
  Fe11 La11 . 8_4555 3.2155(10) 3.2155(10) 3.2155(10) ?
  Fe11 O31 . 6_6655 3.12(2) 3.12(2) 3.12(2) ?
  Fe11 O31 . 8_3455 3.12(2) 3.12(2) 3.12(2) ?
  Ti13 Fe13 . . 0 0 0 ?
  Ti13 O1 . . 1.987(11) 1.987(11) 1.987(11) ?
  Ti13 O1 . 7_5565 2.007(10) 2.007(10) 2.007(10) ?
  Ti13 O2 . . 1.830(15) 1.830(15) 1.830(15) ?
  Ti13 O2 . 7_5565 2.210(14) 2.210(14) 2.210(14) ?
  Ti13 La11 . 6_5555 3.3673(11) 3.3673(11) 3.3673(11) ?
  Ti13 O21 . 6_5655 3.153(12) 3.153(12) 3.153(12) ?
  Ti13 O31 . 6_6655 3.165(11) 3.165(11) 3.165(11) ?
  Ti13 O31 . 8_3455 2.84(3) 2.84(3) 2.84(3) ?
  Fe13 O1 . . 1.987(11) 1.987(11) 1.987(11) ?
  Fe13 O1 . 7_5565 2.007(10) 2.007(10) 2.007(10) ?
  Fe13 O2 . . 1.830(15) 1.830(15) 1.830(15) ?
  Fe13 O2 . 7_5565 2.210(14) 2.210(14) 2.210(14) ?
  Fe13 La11 . 6_5555 3.3673(11) 3.3673(11) 3.3673(11) ?
  Fe13 O21 . 6_5655 3.153(12) 3.153(12) 3.153(12) ?
  Fe13 O31 . 6_6655 3.165(11) 3.165(11) 3.165(11) ?
  Fe13 O31 . 8_3455 2.84(3) 2.84(3) 2.84(3) ?
  Ti21 Fe21 . . 0 0 0 ?
  Ti21 O1 . 1_6555 1.9816(16) 1.9816(16) 1.9816(16) ?
  Ti21 O1 . 7_5565 1.9816(16) 1.9816(16) 1.9816(16) ?
  Ti21 O3 . . 1.966(6) 1.966(6) 1.966(6) ?
  Ti21 O3 . 7_6565 1.966(6) 1.966(6) 1.966(6) ?
  Ti21 La11 . 6_5555 3.2194(10) 3.2194(10) 3.2194(10) ?
  Ti21 La11 . 6_5655 3.4441(10) 3.4441(10) 3.4441(10) ?
  Ti21 La11 . 8_5455 3.4441(10) 3.4441(10) 3.4441(10) ?
  Ti21 La11 . 8_5555 3.2194(10) 3.2194(10) 3.2194(10) ?
  Ti21 O21 . 6_5655 3.20(2) 3.20(2) 3.20(2) ?
  Ti21 O21 . 8_5455 3.20(2) 3.20(2) 3.20(2) ?
  Fe21 O1 . 1_6555 1.9816(16) 1.9816(16) 1.9816(16) ?
  Fe21 O1 . 7_5565 1.9816(16) 1.9816(16) 1.9816(16) ?
  Fe21 O3 . . 1.966(6) 1.966(6) 1.966(6) ?
  Fe21 O3 . 7_6565 1.966(6) 1.966(6) 1.966(6) ?
  Fe21 La11 . 6_5555 3.2194(10) 3.2194(10) 3.2194(10) ?
  Fe21 La11 . 6_5655 3.4441(10) 3.4441(10) 3.4441(10) ?
  Fe21 La11 . 8_5455 3.4441(10) 3.4441(10) 3.4441(10) ?
  Fe21 La11 . 8_5555 3.2194(10) 3.2194(10) 3.2194(10) ?
  Fe21 O21 . 6_5655 3.20(2) 3.20(2) 3.20(2) ?
  Fe21 O21 . 8_5455 3.20(2) 3.20(2) 3.20(2) ?
  Ti23 Fe23 . . 0 0 0 ?
  Ti23 O1 . 1_6555 2.022(11) 2.022(11) 2.022(11) ?
  Ti23 O1 . 7_5565 1.981(10) 1.981(10) 1.981(10) ?
  Ti23 O3 . . 1.773(15) 1.773(15) 1.773(15) ?
  Ti23 O3 . 7_6565 2.258(13) 2.258(13) 2.258(13) ?
  Ti23 La11 . 6_5555 3.4031(11) 3.4031(11) 3.4031(11) ?
  Ti23 O21 . 5_5555 3.068(11) 3.068(11) 3.068(11) ?
  Ti23 O21 . 6_5655 3.182(12) 3.182(12) 3.182(12) ?
  Ti23 O21 . 8_5455 3.12(3) 3.12(3) 3.12(3) ?
  Ti23 O31 . 5_4555 3.147(11) 3.147(11) 3.147(11) ?
  Ti23 O31 . 6_6655 2.957(11) 2.957(11) 2.957(11) ?
  Fe23 O1 . 1_6555 2.022(11) 2.022(11) 2.022(11) ?
  Fe23 O1 . 7_5565 1.981(10) 1.981(10) 1.981(10) ?
  Fe23 O3 . . 1.773(15) 1.773(15) 1.773(15) ?
  Fe23 O3 . 7_6565 2.258(13) 2.258(13) 2.258(13) ?
  Fe23 La11 . 6_5555 3.4031(11) 3.4031(11) 3.4031(11) ?
  Fe23 O21 . 5_5555 3.068(11) 3.068(11) 3.068(11) ?
  Fe23 O21 . 6_5655 3.182(12) 3.182(12) 3.182(12) ?
  Fe23 O21 . 8_5455 3.12(3) 3.12(3) 3.12(3) ?
  Fe23 O31 . 5_4555 3.147(11) 3.147(11) 3.147(11) ?
  Fe23 O31 . 6_6655 2.957(11) 2.957(11) 2.957(11) ?
  O1 O2 . . 2.835(14) 2.779(8) 2.942(18) ?
  O1 O2 . 7_5565 2.806(14) 2.738(18) 2.868(17) ?
  O1 O3 . 1_4555 2.832(13) 2.778(6) 2.930(18) ?
  O1 O3 . 7_5565 2.799(14) 2.713(18) 2.879(17) ?
  O1 La11 . 8_4455 2.806(5) 2.754(9) 2.8579(15) ?
  O1 La11 . 8_4555 2.572(5) 2.5617(15) 2.583(8) ?
  O1 O11 . 8_4465 3.374(18) 3.360(19) 3.388(17) ?
  O1 O21 . 6_4655 4.04(2) 3.25(3) 4.608(15) ?
  O1 O21 . 8_4455 3.31(2) 2.767(14) 3.96(3) ?
  O1 O31 . 6_6655 3.99(2) 3.10(3) 4.633(15) ?
  O1 O31 . 8_3455 3.11(2) 2.631(14) 3.66(3) ?
  O2 O2 . 7_5555 3.393(17) 3.36(2) 3.459(11) ?
  O2 O3 . 1_4555 3.411(17) 3.20(2) 3.66(2) ?
  O2 La11 . 6_5655 3.210(11) 3.153(8) 3.267(14) ?
  O2 La11 . 8_4555 2.661(11) 2.656(14) 2.665(8) ?
  O2 Ti121 . 6_5645 1.836(14) 1.836(14) 1.836(14) ?
  O2 Ti121 . 8_4555 2.154(8) 2.154(8) 2.154(8) ?
  O2 Fe121 . 6_5645 1.836(14) 1.836(14) 1.836(14) ?
  O2 Fe121 . 8_4555 2.154(8) 2.154(8) 2.154(8) ?
  O2 O11 . 6_5645 2.79(2) 2.77(2) 2.82(2) ?
  O2 O11 . 8_4555 2.79(2) 2.76(2) 2.81(2) ?
  O2 O21 . 6_5645 3.88(2) 2.997(19) 4.93(3) ?
  O2 O21 . 8_4455 4.23(2) 3.240(18) 5.30(3) ?
  O2 O21 . 8_4555 3.83(3) 3.05(3) 4.61(3) ?
  O2 O31 . 6_6645 2.80(2) 2.16(3) 3.228(19) ?
  O2 O31 . 8_3455 3.40(2) 3.299(18) 3.58(2) ?
  O2 O31 . 8_3555 2.31(3) 2.29(3) 2.34(3) ?
  O3 O3 . 7_6555 3.249(16) 3.17(2) 3.403(9) ?
  O3 La11 . 6_5655 3.246(10) 3.181(6) 3.311(13) ?
  O3 La11 . 8_5555 2.700(10) 2.692(6) 2.709(13) ?
  O3 Ti221 . 6_6645 1.832(13) 1.832(13) 1.832(13) ?
  O3 Ti221 . 8_4555 2.176(6) 2.176(6) 2.176(6) ?
  O3 Fe221 . 6_6645 1.832(13) 1.832(13) 1.832(13) ?
  O3 Fe221 . 8_4555 2.176(6) 2.176(6) 2.176(6) ?
  O3 O11 . 6_5645 2.85(2) 2.81(2) 2.89(2) ?
  O3 O11 . 8_5555 2.83(2) 2.79(2) 2.87(2) ?
  O3 O21 . 5_5555 2.143(19) 2.143(19) 2.143(19) ?
  O3 O21 . 6_5645 2.55(2) 1.80(3) 3.031(19) ?
  O3 O21 . 8_5455 3.35(2) 3.240(18) 3.57(2) ?
  O3 O21 . 8_5555 2.38(3) 2.32(3) 2.45(3) ?
  O3 O31 . 5_4555 2.146(19) 2.146(19) 2.146(19) ?
  O3 O31 . 6_6645 3.90(2) 3.011(19) 4.97(3) ?
  O3 O31 . 8_4455 4.08(2) 3.119(18) 5.10(3) ?
  O3 O31 . 8_4555 3.74(3) 3.01(3) 4.48(3) ?
  La11 Ti121 . 1_5545 3.367(3) 3.367(3) 3.367(3) ?
  La11 Ti121 . . 3.450(3) 3.450(3) 3.450(3) ?
  La11 Ti121 . 3_6655 3.413(3) 3.413(3) 3.413(3) ?
  La11 Ti121 . 3_6665 3.365(3) 3.365(3) 3.365(3) ?
  La11 Fe121 . 1_5545 3.367(3) 3.367(3) 3.367(3) ?
  La11 Fe121 . . 3.450(3) 3.450(3) 3.450(3) ?
  La11 Fe121 . 3_6655 3.413(3) 3.413(3) 3.413(3) ?
  La11 Fe121 . 3_6665 3.365(3) 3.365(3) 3.365(3) ?
  La11 Ti221 . 1_4545 3.387(3) 3.387(3) 3.387(3) ?
  La11 Ti221 . 1_4555 3.457(3) 3.457(3) 3.457(3) ?
  La11 Ti221 . 3_6655 3.406(3) 3.406(3) 3.406(3) ?
  La11 Ti221 . 3_6665 3.370(3) 3.370(3) 3.370(3) ?
  La11 Fe221 . 1_4545 3.387(3) 3.387(3) 3.387(3) ?
  La11 Fe221 . 1_4555 3.457(3) 3.457(3) 3.457(3) ?
  La11 Fe221 . 3_6655 3.406(3) 3.406(3) 3.406(3) ?
  La11 Fe221 . 3_6665 3.370(3) 3.370(3) 3.370(3) ?
  La11 O11 . 1_5545 2.700(16) 2.640(16) 2.760(16) ?
  La11 O11 . . 2.914(16) 2.879(16) 2.949(16) ?
  La11 O21 . . 2.76(3) 2.10(2) 3.42(3) ?
  La11 O21 . 3_5655 3.38(3) 2.97(3) 3.80(2) ?
  La11 O31 . 1_4555 2.50(2) 1.91(2) 3.09(3) ?
  La11 O31 . 3_7655 3.25(3) 2.71(3) 3.80(2) ?
  Ti121 Fe121 . . 0 0 0 ?
  Ti121 O11 . . 1.92(2) 1.92(2) 1.92(2) ?
  Ti121 O11 . 3_6665 1.99(2) 1.99(2) 1.99(2) ?
  Ti121 O21 . 3_6665 2.81(2) 2.81(2) 2.81(2) ?
  Ti121 O31 . 1_4555 0.94(3) 0.94(3) 0.94(3) ?
  Ti121 O31 . 3_7665 1.89(2) 1.89(2) 1.89(2) ?
  Fe121 O11 . . 1.92(2) 1.92(2) 1.92(2) ?
  Fe121 O11 . 3_6665 1.99(2) 1.99(2) 1.99(2) ?
  Fe121 O21 . 3_6665 2.81(2) 2.81(2) 2.81(2) ?
  Fe121 O31 . 1_4555 0.94(3) 0.94(3) 0.94(3) ?
  Fe121 O31 . 3_7665 1.89(2) 1.89(2) 1.89(2) ?
  Ti221 Fe221 . . 0 0 0 ?
  Ti221 O11 . 1_6555 2.02(2) 2.02(2) 2.02(2) ?
  Ti221 O11 . 3_6665 2.03(2) 2.03(2) 2.03(2) ?
  Ti221 O21 . 1_6555 0.67(3) 0.67(3) 0.67(3) ?
  Ti221 O21 . 3_6665 1.70(2) 1.70(2) 1.70(2) ?
  Ti221 O31 . 3_7665 2.78(2) 2.78(2) 2.78(2) ?
  Fe221 O11 . 1_6555 2.02(2) 2.02(2) 2.02(2) ?
  Fe221 O11 . 3_6665 2.03(2) 2.03(2) 2.03(2) ?
  Fe221 O21 . 1_6555 0.67(3) 0.67(3) 0.67(3) ?
  Fe221 O21 . 3_6665 1.70(2) 1.70(2) 1.70(2) ?
  Fe221 O31 . 3_7665 2.78(2) 2.78(2) 2.78(2) ?
  O11 O21 . . 1.80(3) 1.24(3) 2.37(4) ?
  O11 O21 . 3_5665 2.72(3) 1.91(4) 3.52(3) ?
  O11 O31 . 1_4555 1.82(3) 1.34(3) 2.29(4) ?
  O11 O31 . 3_7665 2.82(3) 2.04(4) 3.60(3) ?
  O21 O21 . 3_5665 1.97(4) 1.97(4) 1.97(4) ?
  O21 O31 . 1_3555 6.02(3) 3.40(4) 8.012(16) ?
  O21 O31 . 1_4555 1.96(3) 0.242(16) 4.46(4) ?
  O21 O31 . 3_6665 4.33(4) 2.86(4) 5.80(4) ?
  O21 O31 . 3_7665 4.52(4) 3.10(4) 5.95(4) ?
  O31 O31 . 3_8665 2.47(4) 2.47(4) 2.47(4) ?

#=======================================================================
data_n5_200K
#=======================================================================

# 5. CHEMICAL DATA

_chemical_name_systematic
?
_chemical_name_common                    ?
_chemical_formula_moiety                 ?
_chemical_formula_structural             ?
_chemical_formula_analytical             ?
_chemical_formula_iupac                  ?
_chemical_formula_sum                    'Fe0.615 La3.333 O11.333 Ti2.718'
_chemical_formula_weight                 808.8
_chemical_melting_point                  ?
_chemical_compound_source                ?
_chemical_absolute_configuration         .

#=======================================================================

# 6. CRYSTAL DATA

_symmetry_cell_setting                   monoclinic
_space_group_ssg_name                    'X21/b(\a\b0)00'
loop_
 _space_group_symop_ssg_id
 _space_group_symop_ssg_operation_algebraic
 1   x1,x2,x3,x4
 2   -x1+1/4,-x2,x3+1/2,-x4+1/4
 3   -x1,-x2,-x3,-x4+1/2
 4   x1,x2+1/2,-x3+1/2,x4
 5   x1+1/2,x2,x3,x4+1/2
 6   -x1+3/4,-x2,x3+1/2,-x4+3/4
 7   -x1+1/2,-x2,-x3,-x4
 8   x1+1/2,x2+1/2,-x3+1/2,x4+1/2
 9   x1+3/4,x2+1/2,x3,x4+1/4
 10  -x1,-x2+1/2,x3+1/2,-x4+1/2
 11  -x1+3/4,-x2+1/2,-x3,-x4+3/4
 12  x1+3/4,x2,-x3+1/2,x4+1/4
 13  x1+1/4,x2+1/2,x3,x4+3/4
 14  -x1+1/2,-x2+1/2,x3+1/2,-x4
 15  -x1+1/4,-x2+1/2,-x3,-x4+1/4
 16  x1+1/4,x2,-x3+1/2,x4+3/4
_cell_length_a                           7.8295(16)
_cell_length_b                           5.2213(14)
_cell_length_c                           5.5418(12)
_cell_angle_alpha                        90
_cell_angle_beta                         90
_cell_angle_gamma                        89.994(17)
_cell_volume                             226.55(9)

loop_
 _jana_cell_twin_matrix_id
 _jana_cell_twin_volume_fraction
 _jana_cell_twin_matrix_1_1
 _jana_cell_twin_matrix_1_2
 _jana_cell_twin_matrix_1_3
 _jana_cell_twin_matrix_2_1
 _jana_cell_twin_matrix_2_2
 _jana_cell_twin_matrix_2_3
 _jana_cell_twin_matrix_3_1
 _jana_cell_twin_matrix_3_2
 _jana_cell_twin_matrix_3_3
1 0.6187(10)
1 0 0
0 1 0
0 0 1
2 0.3813(10)
1 0 0
0 -1 0
0 0 -1

_cell_modulation_dimension               1
loop_
 _cell_wave_vector_seq_id
 _cell_wave_vector_x
 _cell_wave_vector_y
 _cell_wave_vector_z
 1  0.000000  0.083333  0.000000

_jana_cell_commen_supercell_matrix_1_1   1
_jana_cell_commen_supercell_matrix_1_2   0
_jana_cell_commen_supercell_matrix_1_3   0
_jana_cell_commen_supercell_matrix_2_1   0
_jana_cell_commen_supercell_matrix_2_2   12
_jana_cell_commen_supercell_matrix_2_3   0
_jana_cell_commen_supercell_matrix_3_1   0
_jana_cell_commen_supercell_matrix_3_2   0
_jana_cell_commen_supercell_matrix_3_3   1
_jana_cell_commen_t_section_1            0

_cell_formula_units_Z                    1

_cell_measurement_reflns_used            ?
_cell_measurement_theta_min              ?
_cell_measurement_theta_max              ?
_cell_measurement_temperature            200
_cell_special_details
?

_exptl_crystal_density_diffrn            5.9148
_exptl_crystal_density_meas              ?
_exptl_crystal_density_method            ?
_exptl_crystal_F_000                     178

_exptl_absorpt_coefficient_mu            18.606
_exptl_crystal_description               ?
_exptl_crystal_size_max                  ?
_exptl_crystal_size_mid                  ?
_exptl_crystal_size_min                  ?
_exptl_crystal_size_rad                  ?
_exptl_crystal_colour                    ?
_exptl_absorpt_correction_type           ?
_exptl_absorpt_process_details           ?
_exptl_absorpt_correction_T_min          ?
_exptl_absorpt_correction_T_max          ?

#=======================================================================

# 7. EXPERIMENTAL DATA

_exptl_special_details                   ?

_diffrn_ambient_temperature              200
_diffrn_source                           ?
_diffrn_source_power                     ?
_diffrn_source_voltage                   ?
_diffrn_source_current                   ?
_diffrn_radiation_type                   'Mo K\a'
_diffrn_radiation_source                 'X-ray tube'
_diffrn_radiation_wavelength             0.71069
_diffrn_radiation_monochromator          graphite
_diffrn_measurement_device               'four-cycle diffractometer'
_diffrn_measurement_device_type          'Bruker CCD'
_diffrn_detector                         ?
_diffrn_detector_area_resol_mean         ?
_diffrn_measurement_method               ?
_diffrn_measurement_specimen_support     ?

_diffrn_reflns_number                    51050
_diffrn_reflns_theta_min                 2.6
_diffrn_reflns_theta_max                 36.39
_diffrn_reflns_theta_full                34.27
_diffrn_measured_fraction_theta_max      0.94
_diffrn_measured_fraction_theta_full     0.98
_diffrn_reflns_av_R_equivalents          0.0381
_diffrn_reflns_av_sigmaI/netI            0.0211
_diffrn_reflns_limit_h_min               -13
_diffrn_reflns_limit_h_max               13
_diffrn_reflns_limit_k_min               -8
_diffrn_reflns_limit_k_max               8
_diffrn_reflns_limit_l_min               -9
_diffrn_reflns_limit_l_max               9
_diffrn_reflns_limit_index_m_1_min       -5
_diffrn_reflns_limit_index_m_1_max       6
_diffrn_reflns_reduction_process         ?

_diffrn_standards_number                 ?
_diffrn_standards_interval_count         ?
_diffrn_standards_interval_time          ?
_diffrn_standards_decay_%                ?
loop_
_diffrn_standard_refln_index_h
_diffrn_standard_refln_index_k
_diffrn_standard_refln_index_l
  ? ? ?

_diffrn_radiation_probe                  x-ray

#=======================================================================

# 8. REFINEMENT DATA

_refine_special_details
?

_reflns_number_total                     6471
_reflns_number_gt                        6204
_reflns_threshold_expression             'I>3\s(I)'

_refine_ls_structure_factor_coef         F
_refine_ls_R_factor_gt                   0.0288
_refine_ls_wR_factor_gt                  0.0417
_refine_ls_R_factor_all                  0.0307
_refine_ls_wR_factor_ref                 0.0420
_refine_ls_goodness_of_fit_ref           2.59
_refine_ls_goodness_of_fit_gt            2.63
_refine_ls_restrained_S_gt               ?
_refine_ls_restrained_S_all              ?
_refine_ls_number_reflns                 6471
_refine_ls_number_parameters             147
_refine_ls_number_restraints             0
_refine_ls_number_constraints            8
_refine_ls_weighting_scheme              sigma
_refine_ls_weighting_details             'w=1/(\s^2^(F)+0.0001F^2^)'
_refine_ls_hydrogen_treatment            ?
_refine_ls_shift/su_max                  0.0135
_refine_ls_shift/su_mean                 0.0005
_refine_diff_density_max                 4.15
_refine_diff_density_min                 -3.30
_refine_ls_extinction_method
 'B-C type 1 Gaussian isotropic (Becker & Coppens, 1974)'
_refine_ls_extinction_coef               1410(60)
_refine_ls_abs_structure_details         ?
_refine_ls_abs_structure_Flack           ?
_refine_ls_abs_structure_Rogers          ?

loop_
 _atom_type_symbol
 _atom_type_scat_dispersion_real
 _atom_type_scat_dispersion_imag
 _atom_type_scat_source
 Fe  0.3463  0.8444
 'International Tables Vol C tables 4.2.6.8 and 6.1.1.1'
 La -0.2871  2.4523
 'International Tables Vol C tables 4.2.6.8 and 6.1.1.1'
 O   0.0106  0.0060
 'International Tables Vol C tables 4.2.6.8 and 6.1.1.1'
 Ti  0.2776  0.4457
 'International Tables Vol C tables 4.2.6.8 and 6.1.1.1'

_computing_data_collection               ?
_computing_cell_refinement               ?
_computing_data_reduction                ?
_computing_structure_solution            ?
_computing_structure_refinement          ?
_computing_molecular_graphics            ?
_computing_publication_material          ?

#=======================================================================

# 9. ATOMIC COORDINATES AND DISPLACEMENT PARAMETERS

loop_
 _atom_site_label
 _atom_site_type_symbol
 _atom_site_fract_x
 _atom_site_fract_y
 _atom_site_fract_z
 _atom_site_adp_type
 _atom_site_U_iso_or_equiv
 _atom_site_symmetry_multiplicity
 _atom_site_occupancy
 _atom_site_calc_flag
 _atom_site_refinement_flags
 _atom_site_disorder_assembly
 _atom_site_disorder_group
  La1 La -0.000364(18) -0.01673(3) 0.00277(2) Uani 0.00289(4) 16 0.125 d . . .
  La2 La -0.00119(4) 0.29468(4) -0.08986(4) Uani 0.00324(5) 16 0.0417 d . . .
  La3 La -0.00307(4) -0.22746(5) 0.04688(5) Uani 0.00691(6) 16 0.0417 d . . .
  Ti11 Ti 0.25 0 0.5 Uani 0.00171(10) 8 0.0217(8) d . . .
  Fe11 Fe 0.25 0 0.5 Uani 0.00171(10) 8 0.0200(8) d . . .
  Ti12 Ti 0.25 0 0.5 Uani 0.00171(10) 16 0.0359(7) d . . .
  Fe12 Fe 0.25 0 0.5 Uani 0.00171(10) 16 0.0057(7) d . . .
  Ti13 Ti 0.25 0 0.5 Uani 0.00171(10) 16 0.0416(6) d . . .
  Fe13 Fe 0.25 0 0.5 Uani 0.00171(10) 16 0.0001(6) d . . .
  Ti21 Ti 0.75 0 0.5 Uani 0.00149(10) 8 0.0217(8) d . . .
  Fe21 Fe 0.75 0 0.5 Uani 0.00149(10) 8 0.0200(8) d . . .
  Ti22 Ti 0.75 0 0.5 Uani 0.00149(10) 16 0.0371(6) d . . .
  Fe22 Fe 0.75 0 0.5 Uani 0.00149(10) 16 0.0045(6) d . . .
  Ti23 Ti 0.75 0 0.5 Uani 0.00149(10) 16 0.0399(6) d . . .
  Fe23 Fe 0.75 0 0.5 Uani 0.00149(10) 16 0.0017(6) d . . .
  O1 O -0.0001(2) 0.0036(3) 0.5544(3) Uani 0.0045(3) 16 0.2083 d . . .
  O2 O 0.22648(20) 0.2148(3) 0.2074(2) Uani 0.0045(3) 16 0.25 d . . .
  O3 O 0.77499(19) 0.2056(3) 0.2024(2) Uani 0.0046(3) 16 0.25 d . . .

loop_
 _atom_site_aniso_label
 _atom_site_aniso_type_symbol
 _atom_site_aniso_U_11
 _atom_site_aniso_U_22
 _atom_site_aniso_U_33
 _atom_site_aniso_U_12
 _atom_site_aniso_U_13
 _atom_site_aniso_U_23
 La1 La 0.00199(7) 0.00384(7) 0.00283(7) 0.00030(8) -0.00013(6) -0.00126(3)
 La2 La 0.00141(8) 0.00564(10) 0.00266(8) -0.00075(10) 0.00081(10) -0.00198(7)
 La3 La 0.00113(8) 0.01322(12) 0.00638(9) 0.00096(11) -0.00008(12) -0.00508(8)
 Ti11 Ti 0.00205(17) 0.0016(2) 0.00144(17) 0.0000(3) -0.00072(19) -0.00007(12)
 Fe11 Fe 0.00205(17) 0.0016(2) 0.00144(17) 0.0000(3) -0.00072(19) -0.00007(12)
 Ti12 Ti 0.00205(17) 0.0016(2) 0.00144(17) 0.0000(3) -0.00072(19) -0.00007(12)
 Fe12 Fe 0.00205(17) 0.0016(2) 0.00144(17) 0.0000(3) -0.00072(19) -0.00007(12)
 Ti13 Ti 0.00205(17) 0.0016(2) 0.00144(17) 0.0000(3) -0.00072(19) -0.00007(12)
 Fe13 Fe 0.00205(17) 0.0016(2) 0.00144(17) 0.0000(3) -0.00072(19) -0.00007(12)
 Ti21 Ti 0.00205(17) 0.00145(19) 0.00098(17) -0.0002(3) -0.00042(19) 0.00023(12)
 Fe21 Fe 0.00205(17) 0.00145(19) 0.00098(17) -0.0002(3) -0.00042(19) 0.00023(12)
 Ti22 Ti 0.00205(17) 0.00145(19) 0.00098(17) -0.0002(3) -0.00042(19) 0.00023(12)
 Fe22 Fe 0.00205(17) 0.00145(19) 0.00098(17) -0.0002(3) -0.00042(19) 0.00023(12)
 Ti23 Ti 0.00205(17) 0.00145(19) 0.00098(17) -0.0002(3) -0.00042(19) 0.00023(12)
 Fe23 Fe 0.00205(17) 0.00145(19) 0.00098(17) -0.0002(3) -0.00042(19) 0.00023(12)
 O1 O 0.0027(5) 0.0045(6) 0.0062(5) -0.0005(6) 0.0003(4) -0.0008(4)
 O2 O 0.0050(6) 0.0045(6) 0.0041(5) 0.0002(4) 0.0000(4) 0.0007(4)
 O3 O 0.0060(6) 0.0043(6) 0.0034(5) 0.0002(4) 0.0006(4) 0.0021(4)


loop_
 _atom_site_Fourier_wave_vector_seq_id
 _jana_atom_site_Fourier_wave_vector_q1_coeff
    1    1
    2    2
    3    3
    4    4
    5    5
    6    6

loop_
 _jana_atom_site_crenel_ortho_func_id
 _jana_atom_site_crenel_ortho_func_c
 _jana_atom_site_crenel_ortho_func_w
 _jana_atom_site_crenel_ortho_func_eps
 1  0.000000  0.125000  0.950000
 2  0.000000  0.208333  0.950000
 3  0.000000  0.250000  0.950000
 4  0.000000  0.250000  0.950000

loop_
_atom_site_occ_Fourier_atom_site_label
_atom_site_occ_Fourier_wave_vector_seq_id
_atom_site_occ_Fourier_param_cos
_atom_site_occ_Fourier_param_sin
 ? ? ? ?

loop_
_jana_atom_site_occ_Legendre_atom_site_label
_jana_atom_site_occ_Legendre_param_order
_jana_atom_site_occ_Legendre_param_coeff
 ? ? ?

loop_
_jana_atom_site_occ_crenel_ortho_atom_site_label
_jana_atom_site_occ_crenel_ortho_param_order
_jana_atom_site_occ_crenel_ortho_id
_jana_atom_site_occ_crenel_ortho_param_coeff
 ? ? ? ?

loop_
 _atom_site_occ_special_func_atom_site_label
 _atom_site_occ_special_func_crenel_c
 _atom_site_occ_special_func_crenel_w
 La1  0  0.125
 La2  0.107847(4)  0.0417
 La3 -0.102247(4)  0.0417
 Ti11  0  0.0417
 Fe11  0  0.0417
 Ti12  0.0417  0.0417
 Fe12  0.0417  0.0417
 Ti13  0.0833  0.0417
 Fe13  0.0833  0.0417
 Ti21  0  0.0417
 Fe21  0  0.0417
 Ti22  0.0417  0.0417
 Fe22  0.0417  0.0417
 Ti23  0.0833  0.0417
 Fe23  0.0833  0.0417
 O1  0  0.2083
 O2  0  0.25
 O3  0  0.25

loop_
 _atom_site_displace_Fourier_atom_site_label
 _atom_site_displace_Fourier_axis
 _atom_site_displace_Fourier_wave_vector_seq_id
 _atom_site_displace_Fourier_param_cos
 _atom_site_displace_Fourier_param_sin
 Ti11  x  1     0               -0.0056(3)
 Ti11  y  1     0                0.1276(3)
 Ti11  z  1     0               -0.0781(3)
 Ti11  x  2     0                0
 Ti11  y  2     0                0
 Ti11  z  2     0                0
 Ti11  x  3     0                0
 Ti11  y  3     0                0
 Ti11  z  3     0                0
 Ti11  x  4     0                0
 Ti11  y  4     0                0
 Ti11  z  4     0                0
 Ti11  x  5     0                0
 Ti11  y  5     0                0
 Ti11  z  5     0                0
 Ti11  x  6     0                0.00243(18)
 Ti11  y  6     0                0.02424(15)
 Ti11  z  6     0                0.02846(13)
 Fe11  x  1     0               -0.0056(3)
 Fe11  y  1     0                0.1276(3)
 Fe11  z  1     0               -0.0781(3)
 Fe11  x  2     0                0
 Fe11  y  2     0                0
 Fe11  z  2     0                0
 Fe11  x  3     0                0
 Fe11  y  3     0                0
 Fe11  z  3     0                0
 Fe11  x  4     0                0
 Fe11  y  4     0                0
 Fe11  z  4     0                0
 Fe11  x  5     0                0
 Fe11  y  5     0                0
 Fe11  z  5     0                0
 Fe11  x  6     0                0.00243(18)
 Fe11  y  6     0                0.02424(15)
 Fe11  z  6     0                0.02846(13)
 Ti12  x  1     0               -0.0056(3)
 Ti12  y  1     0                0.1276(3)
 Ti12  z  1     0               -0.0781(3)
 Ti12  x  2     0                0
 Ti12  y  2     0                0
 Ti12  z  2     0                0
 Ti12  x  3     0                0
 Ti12  y  3     0                0
 Ti12  z  3     0                0
 Ti12  x  4     0                0
 Ti12  y  4     0                0
 Ti12  z  4     0                0
 Ti12  x  5     0                0
 Ti12  y  5     0                0
 Ti12  z  5     0                0
 Ti12  x  6     0                0.00243(18)
 Ti12  y  6     0                0.02424(15)
 Ti12  z  6     0                0.02846(13)
 Fe12  x  1     0               -0.0056(3)
 Fe12  y  1     0                0.1276(3)
 Fe12  z  1     0               -0.0781(3)
 Fe12  x  2     0                0
 Fe12  y  2     0                0
 Fe12  z  2     0                0
 Fe12  x  3     0                0
 Fe12  y  3     0                0
 Fe12  z  3     0                0
 Fe12  x  4     0                0
 Fe12  y  4     0                0
 Fe12  z  4     0                0
 Fe12  x  5     0                0
 Fe12  y  5     0                0
 Fe12  z  5     0                0
 Fe12  x  6     0                0.00243(18)
 Fe12  y  6     0                0.02424(15)
 Fe12  z  6     0                0.02846(13)
 Ti13  x  1     0               -0.0056(3)
 Ti13  y  1     0                0.1276(3)
 Ti13  z  1     0               -0.0781(3)
 Ti13  x  2     0                0
 Ti13  y  2     0                0
 Ti13  z  2     0                0
 Ti13  x  3     0                0
 Ti13  y  3     0                0
 Ti13  z  3     0                0
 Ti13  x  4     0                0
 Ti13  y  4     0                0
 Ti13  z  4     0                0
 Ti13  x  5     0                0
 Ti13  y  5     0                0
 Ti13  z  5     0                0
 Ti13  x  6     0                0.00243(18)
 Ti13  y  6     0                0.02424(15)
 Ti13  z  6     0                0.02846(13)
 Fe13  x  1     0               -0.0056(3)
 Fe13  y  1     0                0.1276(3)
 Fe13  z  1     0               -0.0781(3)
 Fe13  x  2     0                0
 Fe13  y  2     0                0
 Fe13  z  2     0                0
 Fe13  x  3     0                0
 Fe13  y  3     0                0
 Fe13  z  3     0                0
 Fe13  x  4     0                0
 Fe13  y  4     0                0
 Fe13  z  4     0                0
 Fe13  x  5     0                0
 Fe13  y  5     0                0
 Fe13  z  5     0                0
 Fe13  x  6     0                0.00243(18)
 Fe13  y  6     0                0.02424(15)
 Fe13  z  6     0                0.02846(13)
 Ti21  x  1     0                0.0020(3)
 Ti21  y  1     0                0.1441(3)
 Ti21  z  1     0               -0.0855(2)
 Ti21  x  2     0                0
 Ti21  y  2     0                0
 Ti21  z  2     0                0
 Ti21  x  3     0                0
 Ti21  y  3     0                0
 Ti21  z  3     0                0
 Ti21  x  4     0                0
 Ti21  y  4     0                0
 Ti21  z  4     0                0
 Ti21  x  5     0                0
 Ti21  y  5     0                0
 Ti21  z  5     0                0
 Ti21  x  6     0               -0.00151(18)
 Ti21  y  6     0                0.02327(15)
 Ti21  z  6     0                0.02908(12)
 Fe21  x  1     0                0.0020(3)
 Fe21  y  1     0                0.1441(3)
 Fe21  z  1     0               -0.0855(2)
 Fe21  x  2     0                0
 Fe21  y  2     0                0
 Fe21  z  2     0                0
 Fe21  x  3     0                0
 Fe21  y  3     0                0
 Fe21  z  3     0                0
 Fe21  x  4     0                0
 Fe21  y  4     0                0
 Fe21  z  4     0                0
 Fe21  x  5     0                0
 Fe21  y  5     0                0
 Fe21  z  5     0                0
 Fe21  x  6     0               -0.00151(18)
 Fe21  y  6     0                0.02327(15)
 Fe21  z  6     0                0.02908(12)
 Ti22  x  1     0                0.0020(3)
 Ti22  y  1     0                0.1441(3)
 Ti22  z  1     0               -0.0855(2)
 Ti22  x  2     0                0
 Ti22  y  2     0                0
 Ti22  z  2     0                0
 Ti22  x  3     0                0
 Ti22  y  3     0                0
 Ti22  z  3     0                0
 Ti22  x  4     0                0
 Ti22  y  4     0                0
 Ti22  z  4     0                0
 Ti22  x  5     0                0
 Ti22  y  5     0                0
 Ti22  z  5     0                0
 Ti22  x  6     0               -0.00151(18)
 Ti22  y  6     0                0.02327(15)
 Ti22  z  6     0                0.02908(12)
 Fe22  x  1     0                0.0020(3)
 Fe22  y  1     0                0.1441(3)
 Fe22  z  1     0               -0.0855(2)
 Fe22  x  2     0                0
 Fe22  y  2     0                0
 Fe22  z  2     0                0
 Fe22  x  3     0                0
 Fe22  y  3     0                0
 Fe22  z  3     0                0
 Fe22  x  4     0                0
 Fe22  y  4     0                0
 Fe22  z  4     0                0
 Fe22  x  5     0                0
 Fe22  y  5     0                0
 Fe22  z  5     0                0
 Fe22  x  6     0               -0.00151(18)
 Fe22  y  6     0                0.02327(15)
 Fe22  z  6     0                0.02908(12)
 Ti23  x  1     0                0.0020(3)
 Ti23  y  1     0                0.1441(3)
 Ti23  z  1     0               -0.0855(2)
 Ti23  x  2     0                0
 Ti23  y  2     0                0
 Ti23  z  2     0                0
 Ti23  x  3     0                0
 Ti23  y  3     0                0
 Ti23  z  3     0                0
 Ti23  x  4     0                0
 Ti23  y  4     0                0
 Ti23  z  4     0                0
 Ti23  x  5     0                0
 Ti23  y  5     0                0
 Ti23  z  5     0                0
 Ti23  x  6     0               -0.00151(18)
 Ti23  y  6     0                0.02327(15)
 Ti23  z  6     0                0.02908(12)
 Fe23  x  1     0                0.0020(3)
 Fe23  y  1     0                0.1441(3)
 Fe23  z  1     0               -0.0855(2)
 Fe23  x  2     0                0
 Fe23  y  2     0                0
 Fe23  z  2     0                0
 Fe23  x  3     0                0
 Fe23  y  3     0                0
 Fe23  z  3     0                0
 Fe23  x  4     0                0
 Fe23  y  4     0                0
 Fe23  z  4     0                0
 Fe23  x  5     0                0
 Fe23  y  5     0                0
 Fe23  z  5     0                0
 Fe23  x  6     0               -0.00151(18)
 Fe23  y  6     0                0.02327(15)
 Fe23  z  6     0                0.02908(12)

loop_
_jana_atom_site_displace_Legendre_atom_site_label
_jana_atom_site_displace_Legendre_axis
_jana_atom_site_displace_Legendre_param_order
_jana_atom_site_displace_Legendre_param_coeff
 ? ? ? ?

loop_
 _jana_atom_site_displace_crenel_ortho_atom_site_label
 _jana_atom_site_displace_crenel_ortho_axis
 _jana_atom_site_displace_crenel_ortho_id
 _jana_atom_site_displace_crenel_ortho_param_order
 _jana_atom_site_displace_crenel_ortho_param_coeff
 La1   x  1  1 -0.00007(5)
 La1   y  1  1  0.03225(3)
 La1   z  1  1  0.00227(2)
 La1   x  1  2  0.00013(2)
 La1   y  1  2  0.00127(3)
 La1   z  1  2 -0.00092(3)
 O1    x  2  1  0.0004(3)
 O1    y  2  1  0.0112(3)
 O1    z  2  1 -0.0136(3)
 O1    x  2  2 -0.0005(3)
 O1    y  2  2  0.0135(3)
 O1    z  2  2  0.0009(3)
 O1    x  2  3 -0.0008(3)
 O1    y  2  3  0.0017(4)
 O1    z  2  3  0.0073(3)
 O1    x  2  4  0.0005(3)
 O1    y  2  4 -0.0143(4)
 O1    z  2  4  0.0023(4)
 O2    x  3  1 -0.0006(2)
 O2    y  3  1  0.0341(3)
 O2    z  3  1  0.0038(3)
 O2    x  3  2 -0.0095(2)
 O2    y  3  2 -0.0058(3)
 O2    z  3  2  0.0150(3)
 O2    x  3  3  0.0113(3)
 O2    y  3  3 -0.0060(4)
 O2    z  3  3 -0.0085(3)
 O2    x  3  4  0.0052(2)
 O2    y  3  4  0.0083(3)
 O2    z  3  4 -0.0021(3)
 O2    x  3  5 -0.0117(3)
 O2    y  3  5  0.0053(5)
 O2    z  3  5  0.0046(4)
 O2    x  3  6  0
 O2    y  3  6  0
 O2    z  3  6  0
 O3    x  4  1  0.0000(2)
 O3    y  4  1  0.0350(3)
 O3    z  4  1  0.0012(3)
 O3    x  4  2  0.0056(2)
 O3    y  4  2  0.0011(3)
 O3    z  4  2  0.0175(3)
 O3    x  4  3 -0.0119(3)
 O3    y  4  3 -0.0052(4)
 O3    z  4  3 -0.0062(3)
 O3    x  4  4 -0.0025(2)
 O3    y  4  4  0.0060(3)
 O3    z  4  4 -0.0016(3)
 O3    x  4  5  0.0126(3)
 O3    y  4  5  0.0050(5)
 O3    z  4  5  0.0024(4)
 O3    x  4  6  0
 O3    y  4  6  0
 O3    z  4  6  0

loop_
 _jana_atom_site_U_crenel_ortho_atom_site_label
 _jana_atom_site_U_crenel_ortho_tens_elem
 _jana_atom_site_U_crenel_ortho_id
 _jana_atom_site_U_crenel_ortho_param_order
 _jana_atom_site_U_crenel_ortho_param_coeff
 La1   U11  1  1  0.00019(4)
 La1   U22  1  1  0.00094(5)
 La1   U33  1  1  0.00052(5)
 La1   U12  1  1 -0.00005(5)
 La1   U13  1  1  0.00002(4)
 La1   U23  1  1 -0.00025(4)
 La1   U11  1  2  0.00078(5)
 La1   U22  1  2 -0.00048(6)
 La1   U33  1  2 -0.00007(5)
 La1   U12  1  2 -0.00017(9)
 La1   U13  1  2  0.00030(9)
 La1   U23  1  2  0.00046(4)


#=======================================================================

# 10. MOLECULAR GEOMETRY


loop_
 _geom_bond_atom_site_label_1
 _geom_bond_atom_site_label_2
 _geom_bond_site_ssg_symmetry_1
 _geom_bond_site_ssg_symmetry_2
 _geom_bond_distance_av
 _geom_bond_distance_min
 _geom_bond_distance_max
 _geom_bond_publ_flag
  La1 Ti11 . 1_5545 3.40612(13) 3.40612(13) 3.40612(13) ?
  La1 Ti11 . . 3.39173(13) 3.39173(13) 3.39173(13) ?
  La1 Fe11 . 1_5545 3.40612(13) 3.40612(13) 3.40612(13) ?
  La1 Fe11 . . 3.39173(13) 3.39173(13) 3.39173(13) ?
  La1 Ti21 . 1_4545 3.40422(13) 3.40422(13) 3.40422(13) ?
  La1 Ti21 . 1_4555 3.38982(13) 3.38982(13) 3.38982(13) ?
  La1 Fe21 . 1_4545 3.40422(13) 3.40422(13) 3.40422(13) ?
  La1 Fe21 . 1_4555 3.38982(13) 3.38982(13) 3.38982(13) ?
  La1 O1 . 1_5545 2.4655(16) 2.4655(16) 2.4655(16) ?
  La1 O1 . . 3.0903(16) 3.0903(16) 3.0903(16) ?
  La1 O2 . . 2.446(8) 2.446(8) 2.446(8) ?
  La1 O2 . 7_5555 2.774(8) 2.774(8) 2.774(8) ?
  La1 O3 . 1_4555 2.426(6) 2.426(6) 2.426(6) ?
  La1 O3 . 7_5555 2.755(6) 2.755(6) 2.755(6) ?
  La1 Ti121 . 6_5545 3.431(3) 3.431(3) 3.431(3) ?
  La1 Fe121 . 6_5545 3.431(3) 3.431(3) 3.431(3) ?
  La1 Ti221 . 6_5545 3.444(3) 3.444(3) 3.444(3) ?
  La1 Fe221 . 6_5545 3.444(3) 3.444(3) 3.444(3) ?
  La1 O11 . 8_4455 2.382(17) 2.382(17) 2.382(17) ?
  La1 O11 . 8_4555 3.181(18) 3.181(18) 3.181(18) ?
  La1 O21 . 8_4455 2.41(2) 2.41(2) 2.41(2) ?
  La1 O31 . 8_3455 2.41(2) 2.41(2) 2.41(2) ?
  La2 Ti13 . 1_5545 3.3846(5) 3.3846(5) 3.3846(5) ?
  La2 Ti13 . 2_5645 3.3617(4) 3.3617(4) 3.3617(4) ?
  La2 Fe13 . 1_5545 3.3846(5) 3.3846(5) 3.3846(5) ?
  La2 Fe13 . 2_5645 3.3617(4) 3.3617(4) 3.3617(4) ?
  La2 Ti23 . 1_4545 3.3822(5) 3.3822(5) 3.3822(5) ?
  La2 Fe23 . 1_4545 3.3822(5) 3.3822(5) 3.3822(5) ?
  La2 O1 . 1_5545 2.545(8) 2.545(8) 2.545(8) ?
  La2 O2 . . 2.444(15) 2.444(15) 2.444(15) ?
  La2 O2 . 2_5645 2.542(15) 2.542(15) 2.542(15) ?
  La2 O2 . 7_5555 3.480(14) 3.480(14) 3.480(14) ?
  La2 O3 . 1_4555 2.386(15) 2.386(15) 2.386(15) ?
  La2 O3 . 7_5555 3.434(13) 3.434(13) 3.434(13) ?
  La2 O21 . 5_4555 3.434(11) 3.434(11) 3.434(11) ?
  La2 O31 . 5_3555 3.463(11) 3.463(11) 3.463(11) ?
  La3 Ti13 . 7_5565 3.4945(5) 3.4945(5) 3.4945(5) ?
  La3 Fe13 . 7_5565 3.4945(5) 3.4945(5) 3.4945(5) ?
  La3 Ti23 . 7_5565 3.4651(5) 3.4651(5) 3.4651(5) ?
  La3 Fe23 . 7_5565 3.4651(5) 3.4651(5) 3.4651(5) ?
  La3 O1 . 1_5545 2.796(7) 2.796(7) 2.796(7) ?
  La3 O1 . . 3.127(7) 3.127(7) 3.127(7) ?
  La3 O2 . . 2.856(13) 2.856(13) 2.856(13) ?
  La3 O2 . 7_5555 2.517(15) 2.517(15) 2.517(15) ?
  La3 O3 . 1_4555 2.782(13) 2.782(13) 2.782(13) ?
  La3 O3 . 7_5555 2.441(15) 2.441(15) 2.441(15) ?
  La3 O3 . 4_4455 3.099(15) 3.099(15) 3.099(15) ?
  La3 O21 . 8_4455 1.057(11) 1.057(11) 1.057(11) ?
  La3 O31 . 3_6555 3.383(11) 3.383(11) 3.383(11) ?
  La3 O31 . 8_3455 1.152(11) 1.152(11) 1.152(11) ?
  Ti11 Fe11 . . 0 0 0 ?
  Ti11 O1 . . 1.9829(16) 1.9829(16) 1.9829(16) ?
  Ti11 O1 . 7_5565 1.9829(16) 1.9829(16) 1.9829(16) ?
  Ti11 O2 . . 1.970(7) 1.970(7) 1.970(7) ?
  Ti11 O2 . 7_5565 1.970(7) 1.970(7) 1.970(7) ?
  Ti11 La11 . 6_5555 3.2181(11) 3.2181(11) 3.2181(11) ?
  Ti11 La11 . 6_5655 3.4409(10) 3.4409(10) 3.4409(10) ?
  Ti11 La11 . 8_4455 3.4409(10) 3.4409(10) 3.4409(10) ?
  Ti11 La11 . 8_4555 3.2181(11) 3.2181(11) 3.2181(11) ?
  Ti11 O31 . 6_6655 3.09(2) 3.09(2) 3.09(2) ?
  Ti11 O31 . 8_3455 3.09(2) 3.09(2) 3.09(2) ?
  Fe11 O1 . . 1.9829(16) 1.9829(16) 1.9829(16) ?
  Fe11 O1 . 7_5565 1.9829(16) 1.9829(16) 1.9829(16) ?
  Fe11 O2 . . 1.970(7) 1.970(7) 1.970(7) ?
  Fe11 O2 . 7_5565 1.970(7) 1.970(7) 1.970(7) ?
  Fe11 La11 . 6_5555 3.2181(11) 3.2181(11) 3.2181(11) ?
  Fe11 La11 . 6_5655 3.4409(10) 3.4409(10) 3.4409(10) ?
  Fe11 La11 . 8_4455 3.4409(10) 3.4409(10) 3.4409(10) ?
  Fe11 La11 . 8_4555 3.2181(11) 3.2181(11) 3.2181(11) ?
  Fe11 O31 . 6_6655 3.09(2) 3.09(2) 3.09(2) ?
  Fe11 O31 . 8_3455 3.09(2) 3.09(2) 3.09(2) ?
  Ti13 Fe13 . . 0 0 0 ?
  Ti13 O1 . . 1.989(11) 1.989(11) 1.989(11) ?
  Ti13 O1 . 7_5565 2.003(10) 2.003(10) 2.003(10) ?
  Ti13 O2 . . 1.830(15) 1.830(15) 1.830(15) ?
  Ti13 O2 . 7_5565 2.217(13) 2.217(13) 2.217(13) ?
  Ti13 La11 . 6_5555 3.3712(11) 3.3712(11) 3.3712(11) ?
  Ti13 O21 . 6_5655 3.161(11) 3.161(11) 3.161(11) ?
  Ti13 O31 . 6_6655 3.144(11) 3.144(11) 3.144(11) ?
  Ti13 O31 . 8_3455 2.80(3) 2.80(3) 2.80(3) ?
  Fe13 O1 . . 1.989(11) 1.989(11) 1.989(11) ?
  Fe13 O1 . 7_5565 2.003(10) 2.003(10) 2.003(10) ?
  Fe13 O2 . . 1.830(15) 1.830(15) 1.830(15) ?
  Fe13 O2 . 7_5565 2.217(13) 2.217(13) 2.217(13) ?
  Fe13 La11 . 6_5555 3.3712(11) 3.3712(11) 3.3712(11) ?
  Fe13 O21 . 6_5655 3.161(11) 3.161(11) 3.161(11) ?
  Fe13 O31 . 6_6655 3.144(11) 3.144(11) 3.144(11) ?
  Fe13 O31 . 8_3455 2.80(3) 2.80(3) 2.80(3) ?
  Ti21 Fe21 . . 0 0 0 ?
  Ti21 O1 . 1_6555 1.9843(16) 1.9843(16) 1.9843(16) ?
  Ti21 O1 . 7_5565 1.9843(16) 1.9843(16) 1.9843(16) ?
  Ti21 O3 . . 1.970(6) 1.970(6) 1.970(6) ?
  Ti21 O3 . 7_6565 1.970(6) 1.970(6) 1.970(6) ?
  Ti21 La11 . 6_5555 3.2203(11) 3.2203(11) 3.2203(11) ?
  Ti21 La11 . 6_5655 3.4427(10) 3.4427(10) 3.4427(10) ?
  Ti21 La11 . 8_5455 3.4427(10) 3.4427(10) 3.4427(10) ?
  Ti21 La11 . 8_5555 3.2203(11) 3.2203(11) 3.2203(11) ?
  Ti21 O21 . 6_5655 3.23(2) 3.23(2) 3.23(2) ?
  Ti21 O21 . 8_5455 3.23(2) 3.23(2) 3.23(2) ?
  Fe21 O1 . 1_6555 1.9843(16) 1.9843(16) 1.9843(16) ?
  Fe21 O1 . 7_5565 1.9843(16) 1.9843(16) 1.9843(16) ?
  Fe21 O3 . . 1.970(6) 1.970(6) 1.970(6) ?
  Fe21 O3 . 7_6565 1.970(6) 1.970(6) 1.970(6) ?
  Fe21 La11 . 6_5555 3.2203(11) 3.2203(11) 3.2203(11) ?
  Fe21 La11 . 6_5655 3.4427(10) 3.4427(10) 3.4427(10) ?
  Fe21 La11 . 8_5455 3.4427(10) 3.4427(10) 3.4427(10) ?
  Fe21 La11 . 8_5555 3.2203(11) 3.2203(11) 3.2203(11) ?
  Fe21 O21 . 6_5655 3.23(2) 3.23(2) 3.23(2) ?
  Fe21 O21 . 8_5455 3.23(2) 3.23(2) 3.23(2) ?
  Ti23 Fe23 . . 0 0 0 ?
  Ti23 O1 . 1_6555 2.020(11) 2.020(11) 2.020(11) ?
  Ti23 O1 . 7_5565 1.983(10) 1.983(10) 1.983(10) ?
  Ti23 O3 . . 1.780(15) 1.780(15) 1.780(15) ?
  Ti23 O3 . 7_6565 2.263(13) 2.263(13) 2.263(13) ?
  Ti23 La11 . 6_5555 3.4019(11) 3.4019(11) 3.4019(11) ?
  Ti23 O21 . 5_5555 3.055(11) 3.055(11) 3.055(11) ?
  Ti23 O21 . 6_5655 3.202(11) 3.202(11) 3.202(11) ?
  Ti23 O21 . 8_5455 3.17(3) 3.17(3) 3.17(3) ?
  Ti23 O31 . 5_4555 3.164(11) 3.164(11) 3.164(11) ?
  Ti23 O31 . 6_6655 2.962(11) 2.962(11) 2.962(11) ?
  Fe23 O1 . 1_6555 2.020(11) 2.020(11) 2.020(11) ?
  Fe23 O1 . 7_5565 1.983(10) 1.983(10) 1.983(10) ?
  Fe23 O3 . . 1.780(15) 1.780(15) 1.780(15) ?
  Fe23 O3 . 7_6565 2.263(13) 2.263(13) 2.263(13) ?
  Fe23 La11 . 6_5555 3.4019(11) 3.4019(11) 3.4019(11) ?
  Fe23 O21 . 5_5555 3.055(11) 3.055(11) 3.055(11) ?
  Fe23 O21 . 6_5655 3.202(11) 3.202(11) 3.202(11) ?
  Fe23 O21 . 8_5455 3.17(3) 3.17(3) 3.17(3) ?
  Fe23 O31 . 5_4555 3.164(11) 3.164(11) 3.164(11) ?
  Fe23 O31 . 6_6655 2.962(11) 2.962(11) 2.962(11) ?
  O1 O2 . . 2.836(14) 2.783(8) 2.941(18) ?
  O1 O2 . 7_5565 2.806(14) 2.739(18) 2.873(17) ?
  O1 O3 . 1_4555 2.836(13) 2.787(6) 2.931(18) ?
  O1 O3 . 7_5565 2.804(14) 2.721(18) 2.887(16) ?
  O1 La11 . 8_4455 2.806(5) 2.757(9) 2.8560(15) ?
  O1 La11 . 8_4555 2.575(5) 2.5662(15) 2.583(8) ?
  O1 O11 . 8_4465 3.377(17) 3.368(19) 3.385(16) ?
  O1 O21 . 6_4655 4.07(2) 3.30(3) 4.626(15) ?
  O1 O21 . 8_4455 3.34(2) 2.783(13) 3.99(3) ?
  O1 O31 . 6_6655 3.96(2) 3.04(3) 4.612(15) ?
  O1 O31 . 8_3455 3.09(2) 2.617(13) 3.64(3) ?
  O2 O2 . 7_5555 3.397(17) 3.36(2) 3.460(11) ?
  O2 O3 . 1_4555 3.416(17) 3.202(19) 3.66(2) ?
  O2 La11 . 6_5655 3.211(11) 3.158(8) 3.265(14) ?
  O2 La11 . 8_4555 2.668(11) 2.664(14) 2.672(8) ?
  O2 Ti121 . 6_5645 1.834(13) 1.834(13) 1.834(13) ?
  O2 Ti121 . 8_4555 2.159(8) 2.159(8) 2.159(8) ?
  O2 Fe121 . 6_5645 1.834(13) 1.834(13) 1.834(13) ?
  O2 Fe121 . 8_4555 2.159(8) 2.159(8) 2.159(8) ?
  O2 O11 . 6_5645 2.81(2) 2.77(2) 2.84(2) ?
  O2 O11 . 8_4555 2.80(2) 2.77(2) 2.84(2) ?
  O2 O21 . 6_5645 3.87(2) 2.988(19) 4.91(3) ?
  O2 O21 . 8_4455 4.24(2) 3.251(17) 5.32(3) ?
  O2 O21 . 8_4555 3.81(3) 3.03(3) 4.59(3) ?
  O2 O31 . 6_6645 2.79(2) 2.15(3) 3.218(19) ?
  O2 O31 . 8_3455 3.36(2) 3.26(3) 3.55(2) ?
  O2 O31 . 8_3555 2.35(3) 2.35(3) 2.36(3) ?
  O3 O3 . 7_6555 3.259(16) 3.18(2) 3.409(9) ?
  O3 La11 . 6_5655 3.243(10) 3.177(6) 3.310(13) ?
  O3 La11 . 8_5555 2.702(10) 2.695(6) 2.708(13) ?
  O3 Ti221 . 6_6645 1.834(13) 1.834(13) 1.834(13) ?
  O3 Ti221 . 8_4555 2.175(6) 2.175(6) 2.175(6) ?
  O3 Fe221 . 6_6645 1.834(13) 1.834(13) 1.834(13) ?
  O3 Fe221 . 8_4555 2.175(6) 2.175(6) 2.175(6) ?
  O3 O11 . 6_5645 2.83(2) 2.80(2) 2.86(2) ?
  O3 O11 . 8_5555 2.83(2) 2.79(2) 2.86(2) ?
  O3 O21 . 5_5555 2.128(19) 2.128(19) 2.128(19) ?
  O3 O21 . 6_5645 2.55(2) 1.79(3) 3.034(19) ?
  O3 O21 . 8_5455 3.38(2) 3.257(17) 3.59(2) ?
  O3 O21 . 8_5555 2.36(3) 2.30(2) 2.42(3) ?
  O3 O31 . 5_4555 2.153(19) 2.153(19) 2.153(19) ?
  O3 O31 . 6_6645 3.92(2) 3.024(19) 5.00(3) ?
  O3 O31 . 8_4455 4.08(2) 3.115(17) 5.09(3) ?
  O3 O31 . 8_4555 3.79(3) 3.04(3) 4.53(3) ?
  La11 Ti121 . 1_5545 3.376(3) 3.376(3) 3.376(3) ?
  La11 Ti121 . . 3.462(3) 3.462(3) 3.462(3) ?
  La11 Ti121 . 3_6655 3.415(3) 3.415(3) 3.415(3) ?
  La11 Ti121 . 3_6665 3.370(3) 3.370(3) 3.370(3) ?
  La11 Fe121 . 1_5545 3.376(3) 3.376(3) 3.376(3) ?
  La11 Fe121 . . 3.462(3) 3.462(3) 3.462(3) ?
  La11 Fe121 . 3_6655 3.415(3) 3.415(3) 3.415(3) ?
  La11 Fe121 . 3_6665 3.370(3) 3.370(3) 3.370(3) ?
  La11 Ti221 . 1_4545 3.386(3) 3.386(3) 3.386(3) ?
  La11 Ti221 . 1_4555 3.459(3) 3.459(3) 3.459(3) ?
  La11 Ti221 . 3_6655 3.411(3) 3.411(3) 3.411(3) ?
  La11 Ti221 . 3_6665 3.378(3) 3.378(3) 3.378(3) ?
  La11 Fe221 . 1_4545 3.386(3) 3.386(3) 3.386(3) ?
  La11 Fe221 . 1_4555 3.459(3) 3.459(3) 3.459(3) ?
  La11 Fe221 . 3_6655 3.411(3) 3.411(3) 3.411(3) ?
  La11 Fe221 . 3_6665 3.378(3) 3.378(3) 3.378(3) ?
  La11 O11 . 1_5545 2.706(16) 2.640(16) 2.772(16) ?
  La11 O11 . . 2.922(16) 2.883(16) 2.961(16) ?
  La11 O21 . . 2.77(2) 2.11(2) 3.44(3) ?
  La11 O21 . 3_5655 3.40(2) 2.99(3) 3.81(2) ?
  La11 O31 . 1_4555 2.52(2) 1.92(2) 3.12(3) ?
  La11 O31 . 3_7655 3.24(2) 2.70(3) 3.78(2) ?
  Ti121 Fe121 . . 0 0 0 ?
  Ti121 O11 . . 1.96(2) 1.96(2) 1.96(2) ?
  Ti121 O11 . 3_6665 1.99(2) 1.99(2) 1.99(2) ?
  Ti121 O21 . 3_6665 2.79(2) 2.79(2) 2.79(2) ?
  Ti121 O31 . 1_4555 0.99(3) 0.99(3) 0.99(3) ?
  Ti121 O31 . 3_7665 1.88(2) 1.88(2) 1.88(2) ?
  Fe121 O11 . . 1.96(2) 1.96(2) 1.96(2) ?
  Fe121 O11 . 3_6665 1.99(2) 1.99(2) 1.99(2) ?
  Fe121 O21 . 3_6665 2.79(2) 2.79(2) 2.79(2) ?
  Fe121 O31 . 1_4555 0.99(3) 0.99(3) 0.99(3) ?
  Fe121 O31 . 3_7665 1.88(2) 1.88(2) 1.88(2) ?
  Ti221 Fe221 . . 0 0 0 ?
  Ti221 O11 . 1_6555 1.98(2) 1.98(2) 1.98(2) ?
  Ti221 O11 . 3_6665 2.03(2) 2.03(2) 2.03(2) ?
  Ti221 O21 . 1_6555 0.63(3) 0.63(3) 0.63(3) ?
  Ti221 O21 . 3_6665 1.70(2) 1.70(2) 1.70(2) ?
  Ti221 O31 . 3_7665 2.82(2) 2.82(2) 2.82(2) ?
  Fe221 O11 . 1_6555 1.98(2) 1.98(2) 1.98(2) ?
  Fe221 O11 . 3_6665 2.03(2) 2.03(2) 2.03(2) ?
  Fe221 O21 . 1_6555 0.63(3) 0.63(3) 0.63(3) ?
  Fe221 O21 . 3_6665 1.70(2) 1.70(2) 1.70(2) ?
  Fe221 O31 . 3_7665 2.82(2) 2.82(2) 2.82(2) ?
  O11 O21 . . 1.77(3) 1.22(3) 2.32(4) ?
  O11 O21 . 3_5665 2.70(3) 1.90(4) 3.50(3) ?
  O11 O31 . 1_4555 1.86(3) 1.37(3) 2.36(4) ?
  O11 O31 . 3_7665 2.83(3) 2.05(3) 3.62(3) ?
  O21 O21 . 3_5665 1.92(4) 1.92(4) 1.92(4) ?
  O21 O31 . 1_3555 6.02(3) 3.39(4) 8.005(16) ?
  O21 O31 . 1_4555 1.98(3) 0.248(16) 4.49(4) ?
  O21 O31 . 3_6665 4.36(4) 2.87(4) 5.85(4) ?
  O21 O31 . 3_7665 4.50(4) 3.08(4) 5.91(4) ?
  O31 O31 . 3_8665 2.51(3) 2.51(3) 2.51(3) ?

#=======================================================================
data_n5_250K
#=======================================================================

# 5. CHEMICAL DATA

_chemical_name_systematic
?
_chemical_name_common                    ?
_chemical_formula_moiety                 ?
_chemical_formula_structural             ?
_chemical_formula_analytical             ?
_chemical_formula_iupac                  ?
_chemical_formula_sum                    'Fe0.615 La3.333 O11.333 Ti2.718'
_chemical_formula_weight                 808.8
_chemical_melting_point                  ?
_chemical_compound_source                ?
_chemical_absolute_configuration         .

#=======================================================================

# 6. CRYSTAL DATA

_symmetry_cell_setting                   monoclinic
_space_group_ssg_name                    'X21/b(\a\b0)00'
loop_
 _space_group_symop_ssg_id
 _space_group_symop_ssg_operation_algebraic
 1   x1,x2,x3,x4
 2   -x1+1/4,-x2,x3+1/2,-x4+1/4
 3   -x1,-x2,-x3,-x4+1/2
 4   x1,x2+1/2,-x3+1/2,x4
 5   x1+1/2,x2,x3,x4+1/2
 6   -x1+3/4,-x2,x3+1/2,-x4+3/4
 7   -x1+1/2,-x2,-x3,-x4
 8   x1+1/2,x2+1/2,-x3+1/2,x4+1/2
 9   x1+3/4,x2+1/2,x3,x4+1/4
 10  -x1,-x2+1/2,x3+1/2,-x4+1/2
 11  -x1+3/4,-x2+1/2,-x3,-x4+3/4
 12  x1+3/4,x2,-x3+1/2,x4+1/4
 13  x1+1/4,x2+1/2,x3,x4+3/4
 14  -x1+1/2,-x2+1/2,x3+1/2,-x4
 15  -x1+1/4,-x2+1/2,-x3,-x4+1/4
 16  x1+1/4,x2,-x3+1/2,x4+3/4
_cell_length_a                           7.8339(17)
_cell_length_b                           5.2222(15)
_cell_length_c                           5.5444(13)
_cell_angle_alpha                        90
_cell_angle_beta                         90
_cell_angle_gamma                        90.007(17)
_cell_volume                             226.82(10)

loop_
 _jana_cell_twin_matrix_id
 _jana_cell_twin_volume_fraction
 _jana_cell_twin_matrix_1_1
 _jana_cell_twin_matrix_1_2
 _jana_cell_twin_matrix_1_3
 _jana_cell_twin_matrix_2_1
 _jana_cell_twin_matrix_2_2
 _jana_cell_twin_matrix_2_3
 _jana_cell_twin_matrix_3_1
 _jana_cell_twin_matrix_3_2
 _jana_cell_twin_matrix_3_3
1 0.6170(11)
1 0 0
0 1 0
0 0 1
2 0.3830(11)
1 0 0
0 -1 0
0 0 -1

_cell_modulation_dimension               1
loop_
 _cell_wave_vector_seq_id
 _cell_wave_vector_x
 _cell_wave_vector_y
 _cell_wave_vector_z
 1  0.000000  0.083333  0.000000

_jana_cell_commen_supercell_matrix_1_1   1
_jana_cell_commen_supercell_matrix_1_2   0
_jana_cell_commen_supercell_matrix_1_3   0
_jana_cell_commen_supercell_matrix_2_1   0
_jana_cell_commen_supercell_matrix_2_2   12
_jana_cell_commen_supercell_matrix_2_3   0
_jana_cell_commen_supercell_matrix_3_1   0
_jana_cell_commen_supercell_matrix_3_2   0
_jana_cell_commen_supercell_matrix_3_3   1
_jana_cell_commen_t_section_1            0

_cell_formula_units_Z                    1

_cell_measurement_reflns_used            ?
_cell_measurement_theta_min              ?
_cell_measurement_theta_max              ?
_cell_measurement_temperature            250
_cell_special_details
?

_exptl_crystal_density_diffrn            5.919
_exptl_crystal_density_meas              ?
_exptl_crystal_density_method            ?
_exptl_crystal_F_000                     178

_exptl_absorpt_coefficient_mu            18.62
_exptl_crystal_description               ?
_exptl_crystal_size_max                  ?
_exptl_crystal_size_mid                  ?
_exptl_crystal_size_min                  ?
_exptl_crystal_size_rad                  ?
_exptl_crystal_colour                    ?
_exptl_absorpt_correction_type           ?
_exptl_absorpt_process_details           ?
_exptl_absorpt_correction_T_min          ?
_exptl_absorpt_correction_T_max          ?

#=======================================================================

# 7. EXPERIMENTAL DATA

_exptl_special_details                   ?

_diffrn_ambient_temperature              250
_diffrn_source                           ?
_diffrn_source_power                     ?
_diffrn_source_voltage                   ?
_diffrn_source_current                   ?
_diffrn_radiation_type                   'Mo K\a'
_diffrn_radiation_source                 'X-ray tube'
_diffrn_radiation_wavelength             0.71069
_diffrn_radiation_monochromator          graphite
_diffrn_measurement_device               'four-cycle diffractometer'
_diffrn_measurement_device_type          'Bruker CCD'
_diffrn_detector                         ?
_diffrn_detector_area_resol_mean         ?
_diffrn_measurement_method               ?
_diffrn_measurement_specimen_support     ?

_diffrn_reflns_number                    58927
_diffrn_reflns_theta_min                 2.6
_diffrn_reflns_theta_max                 36.49
_diffrn_reflns_theta_full                34.01
_diffrn_measured_fraction_theta_max      0.94
_diffrn_measured_fraction_theta_full     0.98
_diffrn_reflns_av_R_equivalents          0.0449
_diffrn_reflns_av_sigmaI/netI            0.0219
_diffrn_reflns_limit_h_min               -13
_diffrn_reflns_limit_h_max               13
_diffrn_reflns_limit_k_min               -8
_diffrn_reflns_limit_k_max               8
_diffrn_reflns_limit_l_min               -9
_diffrn_reflns_limit_l_max               9
_diffrn_reflns_limit_index_m_1_min       -5
_diffrn_reflns_limit_index_m_1_max       6
_diffrn_reflns_reduction_process         ?

_diffrn_standards_number                 ?
_diffrn_standards_interval_count         ?
_diffrn_standards_interval_time          ?
_diffrn_standards_decay_%                ?
loop_
_diffrn_standard_refln_index_h
_diffrn_standard_refln_index_k
_diffrn_standard_refln_index_l
  ? ? ?

_diffrn_radiation_probe                  x-ray

#=======================================================================

# 8. REFINEMENT DATA

_refine_special_details
?

_reflns_number_total                     6510
_reflns_number_gt                        6146
_reflns_threshold_expression             'I>3\s(I)'

_refine_ls_structure_factor_coef         F
_refine_ls_R_factor_gt                   0.0332
_refine_ls_wR_factor_gt                  0.0479
_refine_ls_R_factor_all                  0.0357
_refine_ls_wR_factor_ref                 0.0481
_refine_ls_goodness_of_fit_ref           2.72
_refine_ls_goodness_of_fit_gt            2.79
_refine_ls_restrained_S_gt               ?
_refine_ls_restrained_S_all              ?
_refine_ls_number_reflns                 6510
_refine_ls_number_parameters             146
_refine_ls_number_restraints             0
_refine_ls_number_constraints            8
_refine_ls_weighting_scheme              sigma
_refine_ls_weighting_details             'w=1/(\s^2^(F)+0.0001F^2^)'
_refine_ls_hydrogen_treatment            ?
_refine_ls_shift/su_max                  0.0061
_refine_ls_shift/su_mean                 0.0005
_refine_diff_density_max                 4.63
_refine_diff_density_min                 -3.21
_refine_ls_extinction_method
 'B-C type 1 Gaussian isotropic (Becker & Coppens, 1974)'
_refine_ls_extinction_coef               1370(60)
_refine_ls_abs_structure_details         ?
_refine_ls_abs_structure_Flack           ?
_refine_ls_abs_structure_Rogers          ?

loop_
 _atom_type_symbol
 _atom_type_scat_dispersion_real
 _atom_type_scat_dispersion_imag
 _atom_type_scat_source
 Fe  0.3463  0.8444
 'International Tables Vol C tables 4.2.6.8 and 6.1.1.1'
 La -0.2871  2.4523
 'International Tables Vol C tables 4.2.6.8 and 6.1.1.1'
 O   0.0106  0.0060
 'International Tables Vol C tables 4.2.6.8 and 6.1.1.1'
 Ti  0.2776  0.4457
 'International Tables Vol C tables 4.2.6.8 and 6.1.1.1'

_computing_data_collection               ?
_computing_cell_refinement               ?
_computing_data_reduction                ?
_computing_structure_solution            ?
_computing_structure_refinement          ?
_computing_molecular_graphics            ?
_computing_publication_material          ?

#=======================================================================

# 9. ATOMIC COORDINATES AND DISPLACEMENT PARAMETERS

loop_
 _atom_site_label
 _atom_site_type_symbol
 _atom_site_fract_x
 _atom_site_fract_y
 _atom_site_fract_z
 _atom_site_adp_type
 _atom_site_U_iso_or_equiv
 _atom_site_symmetry_multiplicity
 _atom_site_occupancy
 _atom_site_calc_flag
 _atom_site_refinement_flags
 _atom_site_disorder_assembly
 _atom_site_disorder_group
  La1 La -0.00034(2) -0.01624(4) 0.00265(3) Uani 0.00405(5) 16 0.125 d . . .
  La2 La -0.00100(5) 0.29393(5) -0.08955(5) Uani 0.00451(6) 16 0.0417 d . . .
  La3 La -0.00314(5) -0.22850(6) 0.04799(5) Uani 0.00871(7) 16 0.0417 d . . .
  Ti11 Ti 0.25 0 0.5 Uani 0.00262(12) 8 0.0223(9) d . . .
  Fe11 Fe 0.25 0 0.5 Uani 0.00262(12) 8 0.0194(9) d . . .
  Ti12 Ti 0.25 0 0.5 Uani 0.00262(12) 16 0.0342(7) d . . .
  Fe12 Fe 0.25 0 0.5 Uani 0.00262(12) 16 0.0074(7) d . . .
  Ti13 Ti 0.25 0 0.5 Uani 0.00262(12) 16 0.0417 d . . .
  Ti21 Ti 0.75 0 0.5 Uani 0.00239(12) 8 0.0222(9) d . . .
  Fe21 Fe 0.75 0 0.5 Uani 0.00239(12) 8 0.0194(9) d . . .
  Ti22 Ti 0.75 0 0.5 Uani 0.00239(12) 16 0.0356(7) d . . .
  Fe22 Fe 0.75 0 0.5 Uani 0.00239(12) 16 0.0061(7) d . . .
  Ti23 Ti 0.75 0 0.5 Uani 0.00239(12) 16 0.0402(6) d . . .
  Fe23 Fe 0.75 0 0.5 Uani 0.00239(12) 16 0.0015(6) d . . .
  O1 O -0.0003(2) 0.0036(3) 0.5539(3) Uani 0.0059(4) 16 0.2083 d . . .
  O2 O 0.2267(2) 0.2147(3) 0.2073(3) Uani 0.0057(4) 16 0.25 d . . .
  O3 O 0.7743(2) 0.2060(3) 0.2025(3) Uani 0.0057(4) 16 0.25 d . . .

loop_
 _atom_site_aniso_label
 _atom_site_aniso_type_symbol
 _atom_site_aniso_U_11
 _atom_site_aniso_U_22
 _atom_site_aniso_U_33
 _atom_site_aniso_U_12
 _atom_site_aniso_U_13
 _atom_site_aniso_U_23
 La1 La 0.00275(8) 0.00543(9) 0.00398(8) 0.00007(10) -0.00027(8) -0.00140(4)
 La2 La 0.00208(9) 0.00777(12) 0.00369(9) -0.00109(12) 0.00083(12) -0.00232(8)
 La3 La 0.00162(10) 0.01636(15) 0.00816(11) 0.00120(14) -0.00048(14)
 -0.00588(10)
 Ti11 Ti 0.0029(2) 0.0029(2) 0.00200(19) -0.0012(4) -0.0002(2) -0.00018(14)
 Fe11 Fe 0.0029(2) 0.0029(2) 0.00200(19) -0.0012(4) -0.0002(2) -0.00018(14)
 Ti12 Ti 0.0029(2) 0.0029(2) 0.00200(19) -0.0012(4) -0.0002(2) -0.00018(14)
 Fe12 Fe 0.0029(2) 0.0029(2) 0.00200(19) -0.0012(4) -0.0002(2) -0.00018(14)
 Ti13 Ti 0.0029(2) 0.0029(2) 0.00200(19) -0.0012(4) -0.0002(2) -0.00018(14)
 Ti21 Ti 0.0028(2) 0.0026(2) 0.00181(19) -0.0012(3) 0.0001(2) 0.00015(14)
 Fe21 Fe 0.0028(2) 0.0026(2) 0.00181(19) -0.0012(3) 0.0001(2) 0.00015(14)
 Ti22 Ti 0.0028(2) 0.0026(2) 0.00181(19) -0.0012(3) 0.0001(2) 0.00015(14)
 Fe22 Fe 0.0028(2) 0.0026(2) 0.00181(19) -0.0012(3) 0.0001(2) 0.00015(14)
 Ti23 Ti 0.0028(2) 0.0026(2) 0.00181(19) -0.0012(3) 0.0001(2) 0.00015(14)
 Fe23 Fe 0.0028(2) 0.0026(2) 0.00181(19) -0.0012(3) 0.0001(2) 0.00015(14)
 O1 O 0.0034(6) 0.0066(7) 0.0077(7) -0.0010(7) 0.0002(5) -0.0005(5)
 O2 O 0.0055(7) 0.0062(7) 0.0053(6) 0.0003(5) 0.0000(5) 0.0007(5)
 O3 O 0.0072(7) 0.0060(7) 0.0038(6) 0.0002(5) 0.0005(5) 0.0027(5)


loop_
 _atom_site_Fourier_wave_vector_seq_id
 _jana_atom_site_Fourier_wave_vector_q1_coeff
    1    1
    2    2
    3    3
    4    4
    5    5
    6    6

loop_
 _jana_atom_site_crenel_ortho_func_id
 _jana_atom_site_crenel_ortho_func_c
 _jana_atom_site_crenel_ortho_func_w
 _jana_atom_site_crenel_ortho_func_eps
 1  0.000000  0.125000  0.950000
 2  0.000000  0.208333  0.950000
 3  0.000000  0.250000  0.950000
 4  0.000000  0.250000  0.950000

loop_
_atom_site_occ_Fourier_atom_site_label
_atom_site_occ_Fourier_wave_vector_seq_id
_atom_site_occ_Fourier_param_cos
_atom_site_occ_Fourier_param_sin
 ? ? ? ?

loop_
_jana_atom_site_occ_Legendre_atom_site_label
_jana_atom_site_occ_Legendre_param_order
_jana_atom_site_occ_Legendre_param_coeff
 ? ? ?

loop_
_jana_atom_site_occ_crenel_ortho_atom_site_label
_jana_atom_site_occ_crenel_ortho_param_order
_jana_atom_site_occ_crenel_ortho_id
_jana_atom_site_occ_crenel_ortho_param_coeff
 ? ? ? ?

loop_
 _atom_site_occ_special_func_atom_site_label
 _atom_site_occ_special_func_crenel_c
 _atom_site_occ_special_func_crenel_w
 La1  0  0.125
 La2  0.107785(4)  0.0417
 La3 -0.102334(5)  0.0417
 Ti11  0  0.0417
 Fe11  0  0.0417
 Ti12  0.0417  0.0417
 Fe12  0.0417  0.0417
 Ti13  0.0833  0.0417
 Ti21  0  0.0417
 Fe21  0  0.0417
 Ti22  0.0417  0.0417
 Fe22  0.0417  0.0417
 Ti23  0.0833  0.0417
 Fe23  0.0833  0.0417
 O1  0  0.2083
 O2  0  0.25
 O3  0  0.25

loop_
 _atom_site_displace_Fourier_atom_site_label
 _atom_site_displace_Fourier_axis
 _atom_site_displace_Fourier_wave_vector_seq_id
 _atom_site_displace_Fourier_param_cos
 _atom_site_displace_Fourier_param_sin
 Ti11  x  1     0               -0.0059(4)
 Ti11  y  1     0                0.1279(3)
 Ti11  z  1     0               -0.0792(3)
 Ti11  x  2     0                0
 Ti11  y  2     0                0
 Ti11  z  2     0                0
 Ti11  x  3     0                0
 Ti11  y  3     0                0
 Ti11  z  3     0                0
 Ti11  x  4     0                0
 Ti11  y  4     0                0
 Ti11  z  4     0                0
 Ti11  x  5     0                0
 Ti11  y  5     0                0
 Ti11  z  5     0                0
 Ti11  x  6     0                0.0013(2)
 Ti11  y  6     0                0.02413(17)
 Ti11  z  6     0                0.02867(15)
 Fe11  x  1     0               -0.0059(4)
 Fe11  y  1     0                0.1279(3)
 Fe11  z  1     0               -0.0792(3)
 Fe11  x  2     0                0
 Fe11  y  2     0                0
 Fe11  z  2     0                0
 Fe11  x  3     0                0
 Fe11  y  3     0                0
 Fe11  z  3     0                0
 Fe11  x  4     0                0
 Fe11  y  4     0                0
 Fe11  z  4     0                0
 Fe11  x  5     0                0
 Fe11  y  5     0                0
 Fe11  z  5     0                0
 Fe11  x  6     0                0.0013(2)
 Fe11  y  6     0                0.02413(17)
 Fe11  z  6     0                0.02867(15)
 Ti12  x  1     0               -0.0059(4)
 Ti12  y  1     0                0.1279(3)
 Ti12  z  1     0               -0.0792(3)
 Ti12  x  2     0                0
 Ti12  y  2     0                0
 Ti12  z  2     0                0
 Ti12  x  3     0                0
 Ti12  y  3     0                0
 Ti12  z  3     0                0
 Ti12  x  4     0                0
 Ti12  y  4     0                0
 Ti12  z  4     0                0
 Ti12  x  5     0                0
 Ti12  y  5     0                0
 Ti12  z  5     0                0
 Ti12  x  6     0                0.0013(2)
 Ti12  y  6     0                0.02413(17)
 Ti12  z  6     0                0.02867(15)
 Fe12  x  1     0               -0.0059(4)
 Fe12  y  1     0                0.1279(3)
 Fe12  z  1     0               -0.0792(3)
 Fe12  x  2     0                0
 Fe12  y  2     0                0
 Fe12  z  2     0                0
 Fe12  x  3     0                0
 Fe12  y  3     0                0
 Fe12  z  3     0                0
 Fe12  x  4     0                0
 Fe12  y  4     0                0
 Fe12  z  4     0                0
 Fe12  x  5     0                0
 Fe12  y  5     0                0
 Fe12  z  5     0                0
 Fe12  x  6     0                0.0013(2)
 Fe12  y  6     0                0.02413(17)
 Fe12  z  6     0                0.02867(15)
 Ti13  x  1     0               -0.0059(4)
 Ti13  y  1     0                0.1279(3)
 Ti13  z  1     0               -0.0792(3)
 Ti13  x  2     0                0
 Ti13  y  2     0                0
 Ti13  z  2     0                0
 Ti13  x  3     0                0
 Ti13  y  3     0                0
 Ti13  z  3     0                0
 Ti13  x  4     0                0
 Ti13  y  4     0                0
 Ti13  z  4     0                0
 Ti13  x  5     0                0
 Ti13  y  5     0                0
 Ti13  z  5     0                0
 Ti13  x  6     0                0.0013(2)
 Ti13  y  6     0                0.02413(17)
 Ti13  z  6     0                0.02867(15)
 Ti21  x  1     0                0.0012(4)
 Ti21  y  1     0                0.1440(3)
 Ti21  z  1     0               -0.0865(3)
 Ti21  x  2     0                0
 Ti21  y  2     0                0
 Ti21  z  2     0                0
 Ti21  x  3     0                0
 Ti21  y  3     0                0
 Ti21  z  3     0                0
 Ti21  x  4     0                0
 Ti21  y  4     0                0
 Ti21  z  4     0                0
 Ti21  x  5     0                0
 Ti21  y  5     0                0
 Ti21  z  5     0                0
 Ti21  x  6     0               -0.0025(2)
 Ti21  y  6     0                0.02303(17)
 Ti21  z  6     0                0.02934(15)
 Fe21  x  1     0                0.0012(4)
 Fe21  y  1     0                0.1440(3)
 Fe21  z  1     0               -0.0865(3)
 Fe21  x  2     0                0
 Fe21  y  2     0                0
 Fe21  z  2     0                0
 Fe21  x  3     0                0
 Fe21  y  3     0                0
 Fe21  z  3     0                0
 Fe21  x  4     0                0
 Fe21  y  4     0                0
 Fe21  z  4     0                0
 Fe21  x  5     0                0
 Fe21  y  5     0                0
 Fe21  z  5     0                0
 Fe21  x  6     0               -0.0025(2)
 Fe21  y  6     0                0.02303(17)
 Fe21  z  6     0                0.02934(15)
 Ti22  x  1     0                0.0012(4)
 Ti22  y  1     0                0.1440(3)
 Ti22  z  1     0               -0.0865(3)
 Ti22  x  2     0                0
 Ti22  y  2     0                0
 Ti22  z  2     0                0
 Ti22  x  3     0                0
 Ti22  y  3     0                0
 Ti22  z  3     0                0
 Ti22  x  4     0                0
 Ti22  y  4     0                0
 Ti22  z  4     0                0
 Ti22  x  5     0                0
 Ti22  y  5     0                0
 Ti22  z  5     0                0
 Ti22  x  6     0               -0.0025(2)
 Ti22  y  6     0                0.02303(17)
 Ti22  z  6     0                0.02934(15)
 Fe22  x  1     0                0.0012(4)
 Fe22  y  1     0                0.1440(3)
 Fe22  z  1     0               -0.0865(3)
 Fe22  x  2     0                0
 Fe22  y  2     0                0
 Fe22  z  2     0                0
 Fe22  x  3     0                0
 Fe22  y  3     0                0
 Fe22  z  3     0                0
 Fe22  x  4     0                0
 Fe22  y  4     0                0
 Fe22  z  4     0                0
 Fe22  x  5     0                0
 Fe22  y  5     0                0
 Fe22  z  5     0                0
 Fe22  x  6     0               -0.0025(2)
 Fe22  y  6     0                0.02303(17)
 Fe22  z  6     0                0.02934(15)
 Ti23  x  1     0                0.0012(4)
 Ti23  y  1     0                0.1440(3)
 Ti23  z  1     0               -0.0865(3)
 Ti23  x  2     0                0
 Ti23  y  2     0                0
 Ti23  z  2     0                0
 Ti23  x  3     0                0
 Ti23  y  3     0                0
 Ti23  z  3     0                0
 Ti23  x  4     0                0
 Ti23  y  4     0                0
 Ti23  z  4     0                0
 Ti23  x  5     0                0
 Ti23  y  5     0                0
 Ti23  z  5     0                0
 Ti23  x  6     0               -0.0025(2)
 Ti23  y  6     0                0.02303(17)
 Ti23  z  6     0                0.02934(15)
 Fe23  x  1     0                0.0012(4)
 Fe23  y  1     0                0.1440(3)
 Fe23  z  1     0               -0.0865(3)
 Fe23  x  2     0                0
 Fe23  y  2     0                0
 Fe23  z  2     0                0
 Fe23  x  3     0                0
 Fe23  y  3     0                0
 Fe23  z  3     0                0
 Fe23  x  4     0                0
 Fe23  y  4     0                0
 Fe23  z  4     0                0
 Fe23  x  5     0                0
 Fe23  y  5     0                0
 Fe23  z  5     0                0
 Fe23  x  6     0               -0.0025(2)
 Fe23  y  6     0                0.02303(17)
 Fe23  z  6     0                0.02934(15)

loop_
_jana_atom_site_displace_Legendre_atom_site_label
_jana_atom_site_displace_Legendre_axis
_jana_atom_site_displace_Legendre_param_order
_jana_atom_site_displace_Legendre_param_coeff
 ? ? ? ?

loop_
 _jana_atom_site_displace_crenel_ortho_atom_site_label
 _jana_atom_site_displace_crenel_ortho_axis
 _jana_atom_site_displace_crenel_ortho_id
 _jana_atom_site_displace_crenel_ortho_param_order
 _jana_atom_site_displace_crenel_ortho_param_coeff
 La1   x  1  1 -0.00030(6)
 La1   y  1  1  0.03244(3)
 La1   z  1  1  0.00219(3)
 La1   x  1  2  0.00018(3)
 La1   y  1  2  0.00121(4)
 La1   z  1  2 -0.00098(4)
 O1    x  2  1  0.0003(3)
 O1    y  2  1  0.0109(4)
 O1    z  2  1 -0.0136(3)
 O1    x  2  2 -0.0005(3)
 O1    y  2  2  0.0137(4)
 O1    z  2  2  0.0017(4)
 O1    x  2  3 -0.0007(4)
 O1    y  2  3  0.0021(4)
 O1    z  2  3  0.0075(4)
 O1    x  2  4  0.0007(4)
 O1    y  2  4 -0.0144(5)
 O1    z  2  4  0.0016(5)
 O2    x  3  1 -0.0004(2)
 O2    y  3  1  0.0341(3)
 O2    z  3  1  0.0036(3)
 O2    x  3  2 -0.0094(3)
 O2    y  3  2 -0.0059(3)
 O2    z  3  2  0.0151(3)
 O2    x  3  3  0.0111(3)
 O2    y  3  3 -0.0058(4)
 O2    z  3  3 -0.0079(4)
 O2    x  3  4  0.0051(3)
 O2    y  3  4  0.0085(4)
 O2    z  3  4 -0.0021(4)
 O2    x  3  5 -0.0117(4)
 O2    y  3  5  0.0059(5)
 O2    z  3  5  0.0039(5)
 O2    x  3  6  0
 O2    y  3  6  0
 O2    z  3  6  0
 O3    x  4  1 -0.0001(3)
 O3    y  4  1  0.0353(3)
 O3    z  4  1  0.0014(3)
 O3    x  4  2  0.0059(3)
 O3    y  4  2  0.0009(3)
 O3    z  4  2  0.0178(3)
 O3    x  4  3 -0.0118(3)
 O3    y  4  3 -0.0054(4)
 O3    z  4  3 -0.0062(4)
 O3    x  4  4 -0.0026(3)
 O3    y  4  4  0.0060(4)
 O3    z  4  4 -0.0018(4)
 O3    x  4  5  0.0125(4)
 O3    y  4  5  0.0056(5)
 O3    z  4  5  0.0024(5)
 O3    x  4  6  0
 O3    y  4  6  0
 O3    z  4  6  0

loop_
 _jana_atom_site_U_crenel_ortho_atom_site_label
 _jana_atom_site_U_crenel_ortho_tens_elem
 _jana_atom_site_U_crenel_ortho_id
 _jana_atom_site_U_crenel_ortho_param_order
 _jana_atom_site_U_crenel_ortho_param_coeff
 La1   U11  1  1  0.00023(5)
 La1   U22  1  1  0.00095(6)
 La1   U33  1  1  0.00061(6)
 La1   U12  1  1 -0.00018(6)
 La1   U13  1  1  0.00009(5)
 La1   U23  1  1 -0.00031(5)
 La1   U11  1  2  0.00085(6)
 La1   U22  1  2 -0.00042(7)
 La1   U33  1  2 -0.00025(6)
 La1   U12  1  2 -0.00063(11)
 La1   U13  1  2  0.00006(11)
 La1   U23  1  2  0.00048(5)


#=======================================================================

# 10. MOLECULAR GEOMETRY


loop_
 _geom_bond_atom_site_label_1
 _geom_bond_atom_site_label_2
 _geom_bond_site_ssg_symmetry_1
 _geom_bond_site_ssg_symmetry_2
 _geom_bond_distance_av
 _geom_bond_distance_min
 _geom_bond_distance_max
 _geom_bond_publ_flag
  La1 Ti11 . 1_5545 3.40212(15) 3.40212(15) 3.40212(15) ?
  La1 Ti11 . . 3.38950(15) 3.38950(15) 3.38950(15) ?
  La1 Fe11 . 1_5545 3.40212(15) 3.40212(15) 3.40212(15) ?
  La1 Fe11 . . 3.38950(15) 3.38950(15) 3.38950(15) ?
  La1 Ti21 . 1_4545 3.40107(15) 3.40107(15) 3.40107(15) ?
  La1 Ti21 . 1_4555 3.38844(15) 3.38844(15) 3.38844(15) ?
  La1 Fe21 . 1_4545 3.40107(15) 3.40107(15) 3.40107(15) ?
  La1 Fe21 . 1_4555 3.38844(15) 3.38844(15) 3.38844(15) ?
  La1 O1 . 1_5545 2.4631(19) 2.4631(19) 2.4631(19) ?
  La1 O1 . . 3.0845(19) 3.0845(19) 3.0845(19) ?
  La1 O2 . . 2.447(9) 2.447(9) 2.447(9) ?
  La1 O2 . 7_5555 2.773(9) 2.773(9) 2.773(9) ?
  La1 O3 . 1_4555 2.433(7) 2.433(7) 2.433(7) ?
  La1 O3 . 7_5555 2.755(8) 2.755(8) 2.755(8) ?
  La1 Ti121 . 6_5545 3.440(3) 3.440(3) 3.440(3) ?
  La1 Fe121 . 6_5545 3.440(3) 3.440(3) 3.440(3) ?
  La1 Ti221 . 6_5545 3.441(3) 3.441(3) 3.441(3) ?
  La1 Fe221 . 6_5545 3.441(3) 3.441(3) 3.441(3) ?
  La1 O11 . 8_4455 2.39(2) 2.39(2) 2.39(2) ?
  La1 O11 . 8_4555 3.17(2) 3.17(2) 3.17(2) ?
  La1 O21 . 8_4455 2.40(2) 2.40(2) 2.40(2) ?
  La1 O31 . 8_3455 2.36(2) 2.36(2) 2.36(2) ?
  La2 Ti13 . 1_5545 3.3831(6) 3.3831(6) 3.3831(6) ?
  La2 Ti13 . 2_5645 3.3649(5) 3.3649(5) 3.3649(5) ?
  La2 Ti23 . 1_4545 3.3850(6) 3.3850(6) 3.3850(6) ?
  La2 Fe23 . 1_4545 3.3850(6) 3.3850(6) 3.3850(6) ?
  La2 O1 . 1_5545 2.547(10) 2.547(10) 2.547(10) ?
  La2 O2 . . 2.442(18) 2.442(18) 2.442(18) ?
  La2 O2 . 2_5645 2.548(17) 2.548(17) 2.548(17) ?
  La2 O2 . 7_5555 3.473(16) 3.473(16) 3.473(16) ?
  La2 O3 . 1_4555 2.389(18) 2.389(18) 2.389(18) ?
  La2 O3 . 7_5555 3.433(16) 3.433(16) 3.433(16) ?
  La2 O21 . 5_4555 3.410(13) 3.410(13) 3.410(13) ?
  La2 O31 . 5_3555 3.491(13) 3.491(13) 3.491(13) ?
  La3 Ti13 . 7_5565 3.4917(7) 3.4917(7) 3.4917(7) ?
  La3 Ti23 . 7_5565 3.4593(6) 3.4593(6) 3.4593(6) ?
  La3 Fe23 . 7_5565 3.4593(6) 3.4593(6) 3.4593(6) ?
  La3 O1 . 1_5545 2.809(9) 2.809(9) 2.809(9) ?
  La3 O1 . . 3.111(9) 3.111(9) 3.111(9) ?
  La3 O2 . . 2.857(16) 2.857(16) 2.857(16) ?
  La3 O2 . 7_5555 2.515(18) 2.515(18) 2.515(18) ?
  La3 O3 . 1_4555 2.789(16) 2.789(16) 2.789(16) ?
  La3 O3 . 7_5555 2.439(18) 2.439(18) 2.439(18) ?
  La3 O3 . 4_4455 3.087(18) 3.087(18) 3.087(18) ?
  La3 O21 . 6_4645 3.50(3) 3.50(3) 3.50(3) ?
  La3 O21 . 8_4455 1.074(13) 1.074(13) 1.074(13) ?
  La3 O31 . 3_6555 3.409(13) 3.409(13) 3.409(13) ?
  La3 O31 . 8_3455 1.115(13) 1.115(13) 1.115(13) ?
  Ti11 Fe11 . . 0 0 0 ?
  Ti11 O1 . . 1.9837(19) 1.9837(19) 1.9837(19) ?
  Ti11 O1 . 7_5565 1.9837(19) 1.9837(19) 1.9837(19) ?
  Ti11 O2 . . 1.972(9) 1.972(9) 1.972(9) ?
  Ti11 O2 . 7_5565 1.972(9) 1.972(9) 1.972(9) ?
  Ti11 La11 . 6_5555 3.2192(13) 3.2192(13) 3.2192(13) ?
  Ti11 La11 . 6_5655 3.4393(12) 3.4393(12) 3.4393(12) ?
  Ti11 La11 . 8_4455 3.4394(12) 3.4394(12) 3.4394(12) ?
  Ti11 La11 . 8_4555 3.2192(13) 3.2192(13) 3.2192(13) ?
  Ti11 O31 . 6_6655 3.06(2) 3.06(2) 3.06(2) ?
  Ti11 O31 . 8_3455 3.06(2) 3.06(2) 3.06(2) ?
  Fe11 O1 . . 1.9837(19) 1.9837(19) 1.9837(19) ?
  Fe11 O1 . 7_5565 1.9837(19) 1.9837(19) 1.9837(19) ?
  Fe11 O2 . . 1.972(9) 1.972(9) 1.972(9) ?
  Fe11 O2 . 7_5565 1.972(9) 1.972(9) 1.972(9) ?
  Fe11 La11 . 6_5555 3.2192(13) 3.2192(13) 3.2192(13) ?
  Fe11 La11 . 6_5655 3.4393(12) 3.4393(12) 3.4393(12) ?
  Fe11 La11 . 8_4455 3.4394(12) 3.4394(12) 3.4394(12) ?
  Fe11 La11 . 8_4555 3.2192(13) 3.2192(13) 3.2192(13) ?
  Fe11 O31 . 6_6655 3.06(2) 3.06(2) 3.06(2) ?
  Fe11 O31 . 8_3455 3.06(2) 3.06(2) 3.06(2) ?
  Ti13 O1 . . 1.992(13) 1.992(13) 1.992(13) ?
  Ti13 O1 . 7_5565 2.005(12) 2.005(12) 2.005(12) ?
  Ti13 O2 . . 1.827(17) 1.827(17) 1.827(17) ?
  Ti13 O2 . 7_5565 2.219(16) 2.219(16) 2.219(16) ?
  Ti13 La11 . 6_5555 3.3721(13) 3.3721(13) 3.3721(13) ?
  Ti13 O21 . 6_5655 3.112(14) 3.112(14) 3.112(14) ?
  Ti13 O31 . 6_6655 3.135(14) 3.135(14) 3.135(14) ?
  Ti13 O31 . 8_3455 2.72(3) 2.72(3) 2.72(3) ?
  Ti21 Fe21 . . 0 0 0 ?
  Ti21 O1 . 1_6555 1.9848(19) 1.9848(19) 1.9848(19) ?
  Ti21 O1 . 7_5565 1.9848(19) 1.9848(19) 1.9848(19) ?
  Ti21 O3 . . 1.968(7) 1.968(7) 1.968(7) ?
  Ti21 O3 . 7_6565 1.968(7) 1.968(7) 1.968(7) ?
  Ti21 La11 . 6_5555 3.2229(13) 3.2229(13) 3.2229(13) ?
  Ti21 La11 . 6_5655 3.4459(12) 3.4459(12) 3.4459(12) ?
  Ti21 La11 . 8_5455 3.4459(12) 3.4459(12) 3.4459(12) ?
  Ti21 La11 . 8_5555 3.2229(13) 3.2229(13) 3.2229(13) ?
  Ti21 O21 . 6_5655 3.16(2) 3.16(2) 3.16(2) ?
  Ti21 O21 . 8_5455 3.16(2) 3.16(2) 3.16(2) ?
  Fe21 O1 . 1_6555 1.9848(19) 1.9848(19) 1.9848(19) ?
  Fe21 O1 . 7_5565 1.9848(19) 1.9848(19) 1.9848(19) ?
  Fe21 O3 . . 1.968(7) 1.968(7) 1.968(7) ?
  Fe21 O3 . 7_6565 1.968(7) 1.968(7) 1.968(7) ?
  Fe21 La11 . 6_5555 3.2229(13) 3.2229(13) 3.2229(13) ?
  Fe21 La11 . 6_5655 3.4459(12) 3.4459(12) 3.4459(12) ?
  Fe21 La11 . 8_5455 3.4459(12) 3.4459(12) 3.4459(12) ?
  Fe21 La11 . 8_5555 3.2229(13) 3.2229(13) 3.2229(13) ?
  Fe21 O21 . 6_5655 3.16(2) 3.16(2) 3.16(2) ?
  Fe21 O21 . 8_5455 3.16(2) 3.16(2) 3.16(2) ?
  Ti23 Fe23 . . 0 0 0 ?
  Ti23 O1 . 1_6555 2.022(13) 2.022(13) 2.022(13) ?
  Ti23 O1 . 7_5565 1.980(12) 1.980(12) 1.980(12) ?
  Ti23 O3 . . 1.778(17) 1.778(17) 1.778(17) ?
  Ti23 O3 . 7_6565 2.263(15) 2.263(15) 2.263(15) ?
  Ti23 La11 . 6_5555 3.4026(13) 3.4026(13) 3.4026(13) ?
  Ti23 O21 . 5_5555 3.095(13) 3.095(13) 3.095(13) ?
  Ti23 O21 . 6_5655 3.159(14) 3.159(14) 3.159(14) ?
  Ti23 O21 . 8_5455 3.01(3) 3.01(3) 3.01(3) ?
  Ti23 O31 . 5_4555 3.197(13) 3.197(13) 3.197(13) ?
  Ti23 O31 . 6_6655 2.947(13) 2.947(13) 2.947(13) ?
  Fe23 O1 . 1_6555 2.022(13) 2.022(13) 2.022(13) ?
  Fe23 O1 . 7_5565 1.980(12) 1.980(12) 1.980(12) ?
  Fe23 O3 . . 1.778(17) 1.778(17) 1.778(17) ?
  Fe23 O3 . 7_6565 2.263(15) 2.263(15) 2.263(15) ?
  Fe23 La11 . 6_5555 3.4026(13) 3.4026(13) 3.4026(13) ?
  Fe23 O21 . 5_5555 3.095(13) 3.095(13) 3.095(13) ?
  Fe23 O21 . 6_5655 3.159(14) 3.159(14) 3.159(14) ?
  Fe23 O21 . 8_5455 3.01(3) 3.01(3) 3.01(3) ?
  Fe23 O31 . 5_4555 3.197(13) 3.197(13) 3.197(13) ?
  Fe23 O31 . 6_6655 2.947(13) 2.947(13) 2.947(13) ?
  O1 O2 . . 2.837(16) 2.782(19) 2.94(2) ?
  O1 O2 . 7_5565 2.809(17) 2.74(2) 2.88(2) ?
  O1 O3 . 1_4555 2.834(16) 2.784(19) 2.93(2) ?
  O1 O3 . 7_5565 2.803(16) 2.72(2) 2.88(2) ?
  O1 La11 . 8_4455 2.805(6) 2.753(10) 2.8560(18) ?
  O1 La11 . 8_4555 2.574(6) 2.5669(18) 2.581(10) ?
  O1 O11 . 8_4465 3.37(2) 3.35(2) 3.39(2) ?
  O1 O21 . 6_4655 4.01(3) 3.19(3) 4.605(19) ?
  O1 O21 . 8_4455 3.23(3) 2.716(16) 3.84(4) ?
  O1 O31 . 6_6655 3.94(3) 3.00(4) 4.610(19) ?
  O1 O31 . 8_3455 3.05(3) 2.593(16) 3.58(4) ?
  O2 O2 . 7_5555 3.39(2) 3.35(2) 3.460(13) ?
  O2 O3 . 1_4555 3.43(2) 3.21(2) 3.67(3) ?
  O2 La11 . 6_5655 3.207(13) 3.152(9) 3.262(16) ?
  O2 La11 . 8_4555 2.671(13) 2.668(16) 2.673(9) ?
  O2 Ti121 . 6_5645 1.834(16) 1.834(16) 1.834(16) ?
  O2 Ti121 . 8_4555 2.152(9) 2.152(9) 2.152(9) ?
  O2 Fe121 . 6_5645 1.834(16) 1.834(16) 1.834(16) ?
  O2 Fe121 . 8_4555 2.152(9) 2.152(9) 2.152(9) ?
  O2 O11 . 6_5645 2.81(3) 2.77(3) 2.84(3) ?
  O2 O11 . 8_4555 2.81(3) 2.77(3) 2.86(2) ?
  O2 O21 . 6_5645 3.88(3) 3.01(2) 4.92(4) ?
  O2 O21 . 8_4455 4.20(3) 3.22(2) 5.24(4) ?
  O2 O21 . 8_4555 3.82(3) 3.06(3) 4.58(4) ?
  O2 O31 . 6_6645 2.76(3) 2.09(4) 3.20(2) ?
  O2 O31 . 8_3455 3.30(3) 3.15(4) 3.50(3) ?
  O2 O31 . 8_3555 2.43(3) 2.41(3) 2.45(3) ?
  O3 O3 . 7_6555 3.262(19) 3.19(2) 3.415(10) ?
  O3 La11 . 6_5655 3.238(12) 3.172(8) 3.305(16) ?
  O3 La11 . 8_5555 2.704(12) 2.697(8) 2.711(16) ?
  O3 Ti221 . 6_6645 1.830(15) 1.830(15) 1.830(15) ?
  O3 Ti221 . 8_4555 2.172(8) 2.172(8) 2.172(8) ?
  O3 Fe221 . 6_6645 1.830(15) 1.830(15) 1.830(15) ?
  O3 Fe221 . 8_4555 2.172(8) 2.172(8) 2.172(8) ?
  O3 O11 . 6_5645 2.82(3) 2.79(3) 2.84(3) ?
  O3 O11 . 8_5555 2.83(3) 2.79(3) 2.86(2) ?
  O3 O21 . 5_5555 2.13(2) 2.13(2) 2.13(2) ?
  O3 O21 . 6_5645 2.60(3) 1.87(4) 3.07(2) ?
  O3 O21 . 8_5455 3.33(3) 3.20(4) 3.55(3) ?
  O3 O21 . 8_5555 2.38(3) 2.33(3) 2.43(3) ?
  O3 O31 . 5_4555 2.19(2) 2.19(2) 2.19(2) ?
  O3 O31 . 6_6645 3.89(3) 3.00(2) 4.95(4) ?
  O3 O31 . 8_4455 4.03(3) 3.09(2) 5.02(4) ?
  O3 O31 . 8_4555 3.83(3) 3.08(3) 4.57(4) ?
  La11 Ti121 . 1_5545 3.366(4) 3.366(4) 3.366(4) ?
  La11 Ti121 . . 3.454(4) 3.454(4) 3.454(4) ?
  La11 Ti121 . 3_6655 3.414(4) 3.414(4) 3.414(4) ?
  La11 Ti121 . 3_6665 3.373(4) 3.373(4) 3.373(4) ?
  La11 Fe121 . 1_5545 3.366(4) 3.366(4) 3.366(4) ?
  La11 Fe121 . . 3.454(4) 3.454(4) 3.454(4) ?
  La11 Fe121 . 3_6655 3.414(4) 3.414(4) 3.414(4) ?
  La11 Fe121 . 3_6665 3.373(4) 3.373(4) 3.373(4) ?
  La11 Ti221 . 1_4545 3.388(4) 3.388(4) 3.388(4) ?
  La11 Ti221 . 1_4555 3.464(4) 3.464(4) 3.464(4) ?
  La11 Ti221 . 3_6655 3.404(4) 3.404(4) 3.404(4) ?
  La11 Ti221 . 3_6665 3.374(4) 3.374(4) 3.374(4) ?
  La11 Fe221 . 1_4545 3.388(4) 3.388(4) 3.388(4) ?
  La11 Fe221 . 1_4555 3.464(4) 3.464(4) 3.464(4) ?
  La11 Fe221 . 3_6655 3.404(4) 3.404(4) 3.404(4) ?
  La11 Fe221 . 3_6665 3.374(4) 3.374(4) 3.374(4) ?
  La11 O11 . 1_5545 2.685(19) 2.631(19) 2.739(19) ?
  La11 O11 . . 2.933(19) 2.906(19) 2.960(19) ?
  La11 O21 . . 2.69(3) 2.05(2) 3.34(3) ?
  La11 O21 . 3_5655 3.34(3) 2.90(3) 3.78(3) ?
  La11 O31 . 1_4555 2.55(3) 1.95(2) 3.15(3) ?
  La11 O31 . 3_7655 3.27(3) 2.75(3) 3.79(3) ?
  Ti121 Fe121 . . 0 0 0 ?
  Ti121 O11 . . 1.97(3) 1.97(3) 1.97(3) ?
  Ti121 O11 . 3_6665 2.01(3) 2.01(3) 2.01(3) ?
  Ti121 O21 . 3_6665 2.83(3) 2.83(3) 2.83(3) ?
  Ti121 O31 . 1_4555 1.03(3) 1.03(3) 1.03(3) ?
  Ti121 O31 . 3_7665 1.91(3) 1.91(3) 1.91(3) ?
  Fe121 O11 . . 1.97(3) 1.97(3) 1.97(3) ?
  Fe121 O11 . 3_6665 2.01(3) 2.01(3) 2.01(3) ?
  Fe121 O21 . 3_6665 2.83(3) 2.83(3) 2.83(3) ?
  Fe121 O31 . 1_4555 1.03(3) 1.03(3) 1.03(3) ?
  Fe121 O31 . 3_7665 1.91(3) 1.91(3) 1.91(3) ?
  Ti221 Fe221 . . 0 0 0 ?
  Ti221 O11 . 1_6555 1.98(3) 1.98(3) 1.98(3) ?
  Ti221 O11 . 3_6665 2.02(3) 2.02(3) 2.02(3) ?
  Ti221 O21 . 1_6555 0.75(3) 0.75(3) 0.75(3) ?
  Ti221 O21 . 3_6665 1.75(3) 1.75(3) 1.75(3) ?
  Ti221 O31 . 3_7665 2.82(3) 2.82(3) 2.82(3) ?
  Fe221 O11 . 1_6555 1.98(3) 1.98(3) 1.98(3) ?
  Fe221 O11 . 3_6665 2.02(3) 2.02(3) 2.02(3) ?
  Fe221 O21 . 1_6555 0.75(3) 0.75(3) 0.75(3) ?
  Fe221 O21 . 3_6665 1.75(3) 1.75(3) 1.75(3) ?
  Fe221 O31 . 3_7665 2.82(3) 2.82(3) 2.82(3) ?
  O11 O21 . . 1.80(4) 1.29(3) 2.32(4) ?
  O11 O21 . 3_5665 2.74(4) 1.97(4) 3.51(4) ?
  O11 O31 . 1_4555 1.87(4) 1.37(3) 2.38(4) ?
  O11 O31 . 3_7665 2.88(4) 2.11(4) 3.64(4) ?
  O21 O21 . 3_5665 2.14(4) 2.14(4) 2.14(4) ?
  O21 O31 . 1_3555 6.03(4) 3.43(5) 8.02(2) ?
  O21 O31 . 1_4555 1.95(4) 0.22(2) 4.43(5) ?
  O21 O31 . 3_6665 4.44(4) 3.01(4) 5.88(4) ?
  O21 O31 . 3_7665 4.57(4) 3.19(4) 5.95(4) ?
  O31 O31 . 3_8665 2.58(4) 2.58(4) 2.58(4) ?

#=======================================================================
data_n5_295K
#=======================================================================

# 5. CHEMICAL DATA

_chemical_name_systematic
?
_chemical_name_common                    ?
_chemical_formula_moiety                 ?
_chemical_formula_structural             ?
_chemical_formula_analytical             ?
_chemical_formula_iupac                  ?
_chemical_formula_sum                    'Fe0.615 La3.333 O11.333 Ti2.718'
_chemical_formula_weight                 808.8
_chemical_melting_point                  ?
_chemical_compound_source                ?
_chemical_absolute_configuration         .

#=======================================================================

# 6. CRYSTAL DATA

_symmetry_cell_setting                   monoclinic
_space_group_ssg_name                    'X21/b(\a\b0)00'
loop_
 _space_group_symop_ssg_id
 _space_group_symop_ssg_operation_algebraic
 1   x1,x2,x3,x4
 2   -x1+1/4,-x2,x3+1/2,-x4+1/4
 3   -x1,-x2,-x3,-x4+1/2
 4   x1,x2+1/2,-x3+1/2,x4
 5   x1+1/2,x2,x3,x4+1/2
 6   -x1+3/4,-x2,x3+1/2,-x4+3/4
 7   -x1+1/2,-x2,-x3,-x4
 8   x1+1/2,x2+1/2,-x3+1/2,x4+1/2
 9   x1+3/4,x2+1/2,x3,x4+1/4
 10  -x1,-x2+1/2,x3+1/2,-x4+1/2
 11  -x1+3/4,-x2+1/2,-x3,-x4+3/4
 12  x1+3/4,x2,-x3+1/2,x4+1/4
 13  x1+1/4,x2+1/2,x3,x4+3/4
 14  -x1+1/2,-x2+1/2,x3+1/2,-x4
 15  -x1+1/4,-x2+1/2,-x3,-x4+1/4
 16  x1+1/4,x2,-x3+1/2,x4+3/4
_cell_length_a                           7.8370(16)
_cell_length_b                           5.2237(13)
_cell_length_c                           5.5459(12)
_cell_angle_alpha                        90
_cell_angle_beta                         90
_cell_angle_gamma                        90.001(17)
_cell_volume                             227.04(9)

loop_
 _jana_cell_twin_matrix_id
 _jana_cell_twin_volume_fraction
 _jana_cell_twin_matrix_1_1
 _jana_cell_twin_matrix_1_2
 _jana_cell_twin_matrix_1_3
 _jana_cell_twin_matrix_2_1
 _jana_cell_twin_matrix_2_2
 _jana_cell_twin_matrix_2_3
 _jana_cell_twin_matrix_3_1
 _jana_cell_twin_matrix_3_2
 _jana_cell_twin_matrix_3_3
1 0.6154(12)
1 0 0
0 1 0
0 0 1
2 0.3846(12)
1 0 0
0 -1 0
0 0 -1

_cell_modulation_dimension               1
loop_
 _cell_wave_vector_seq_id
 _cell_wave_vector_x
 _cell_wave_vector_y
 _cell_wave_vector_z
 1  0.000000  0.083333  0.000000

_jana_cell_commen_supercell_matrix_1_1   1
_jana_cell_commen_supercell_matrix_1_2   0
_jana_cell_commen_supercell_matrix_1_3   0
_jana_cell_commen_supercell_matrix_2_1   0
_jana_cell_commen_supercell_matrix_2_2   12
_jana_cell_commen_supercell_matrix_2_3   0
_jana_cell_commen_supercell_matrix_3_1   0
_jana_cell_commen_supercell_matrix_3_2   0
_jana_cell_commen_supercell_matrix_3_3   1
_jana_cell_commen_t_section_1            0

_cell_formula_units_Z                    1

_cell_measurement_reflns_used            ?
_cell_measurement_theta_min              ?
_cell_measurement_theta_max              ?
_cell_measurement_temperature            293
_cell_special_details
?

_exptl_crystal_density_diffrn            5.9134
_exptl_crystal_density_meas              ?
_exptl_crystal_density_method            ?
_exptl_crystal_F_000                     178

_exptl_absorpt_coefficient_mu            18.602
_exptl_crystal_description               ?
_exptl_crystal_size_max                  ?
_exptl_crystal_size_mid                  ?
_exptl_crystal_size_min                  ?
_exptl_crystal_size_rad                  ?
_exptl_crystal_colour                    ?
_exptl_absorpt_correction_type           ?
_exptl_absorpt_process_details           ?
_exptl_absorpt_correction_T_min          ?
_exptl_absorpt_correction_T_max          ?

#=======================================================================

# 7. EXPERIMENTAL DATA

_exptl_special_details                   ?

_diffrn_ambient_temperature              293
_diffrn_source                           ?
_diffrn_source_power                     ?
_diffrn_source_voltage                   ?
_diffrn_source_current                   ?
_diffrn_radiation_type                   'Mo K\a'
_diffrn_radiation_source                 'X-ray tube'
_diffrn_radiation_wavelength             0.71069
_diffrn_radiation_monochromator          graphite
_diffrn_measurement_device               'four-cycle diffractometer'
_diffrn_measurement_device_type          'Bruker CCD'
_diffrn_detector                         ?
_diffrn_detector_area_resol_mean         ?
_diffrn_measurement_method               ?
_diffrn_measurement_specimen_support     ?

_diffrn_reflns_number                    50644
_diffrn_reflns_theta_min                 2.6
_diffrn_reflns_theta_max                 33.76
_diffrn_reflns_theta_full                32.19
_diffrn_measured_fraction_theta_max      0.94
_diffrn_measured_fraction_theta_full     0.98
_diffrn_reflns_av_R_equivalents          0.0417
_diffrn_reflns_av_sigmaI/netI            0.0202
_diffrn_reflns_limit_h_min               -12
_diffrn_reflns_limit_h_max               12
_diffrn_reflns_limit_k_min               -8
_diffrn_reflns_limit_k_max               7
_diffrn_reflns_limit_l_min               -8
_diffrn_reflns_limit_l_max               8
_diffrn_reflns_limit_index_m_1_min       -5
_diffrn_reflns_limit_index_m_1_max       6
_diffrn_reflns_reduction_process         ?

_diffrn_standards_number                 ?
_diffrn_standards_interval_count         ?
_diffrn_standards_interval_time          ?
_diffrn_standards_decay_%                ?
loop_
_diffrn_standard_refln_index_h
_diffrn_standard_refln_index_k
_diffrn_standard_refln_index_l
  ? ? ?

#=======================================================================

# 8. REFINEMENT DATA

_refine_special_details
?

_reflns_number_total                     5368
_reflns_number_gt                        5074
_reflns_threshold_expression             'I>3\s(I)'

_refine_ls_structure_factor_coef         F
_refine_ls_R_factor_gt                   0.0299
_refine_ls_wR_factor_gt                  0.0448
_refine_ls_R_factor_all                  0.0329
_refine_ls_wR_factor_ref                 0.0452
_refine_ls_goodness_of_fit_ref           2.77
_refine_ls_goodness_of_fit_gt            2.84
_refine_ls_restrained_S_gt               ?
_refine_ls_restrained_S_all              ?
_refine_ls_number_reflns                 5368
_refine_ls_number_parameters             147
_refine_ls_number_restraints             0
_refine_ls_number_constraints            8
_refine_ls_weighting_scheme              sigma
_refine_ls_weighting_details             'w=1/(\s^2^(F)+0.0001F^2^)'
_refine_ls_hydrogen_treatment            ?
_refine_ls_shift/su_max                  0.0025
_refine_ls_shift/su_mean                 0.0002
_refine_diff_density_max                 3.58
_refine_diff_density_min                 -2.79
_refine_ls_extinction_method
 'B-C type 1 Gaussian isotropic (Becker & Coppens, 1974)'
_refine_ls_extinction_coef               1710(70)
_refine_ls_abs_structure_details         ?
_refine_ls_abs_structure_Flack           ?
_refine_ls_abs_structure_Rogers          ?

loop_
 _atom_type_symbol
 _atom_type_scat_dispersion_real
 _atom_type_scat_dispersion_imag
 _atom_type_scat_source
 Fe  0.3463  0.8444
 'International Tables Vol C tables 4.2.6.8 and 6.1.1.1'
 La -0.2871  2.4523
 'International Tables Vol C tables 4.2.6.8 and 6.1.1.1'
 O   0.0106  0.0060
 'International Tables Vol C tables 4.2.6.8 and 6.1.1.1'
 Ti  0.2776  0.4457
 'International Tables Vol C tables 4.2.6.8 and 6.1.1.1'

_computing_data_collection               ?
_computing_cell_refinement               ?
_computing_data_reduction                ?
_computing_structure_solution            ?
_computing_structure_refinement          ?
_computing_molecular_graphics            ?
_computing_publication_material          ?

#=======================================================================

# 9. ATOMIC COORDINATES AND DISPLACEMENT PARAMETERS

loop_
 _atom_site_label
 _atom_site_type_symbol
 _atom_site_fract_x
 _atom_site_fract_y
 _atom_site_fract_z
 _atom_site_adp_type
 _atom_site_U_iso_or_equiv
 _atom_site_symmetry_multiplicity
 _atom_site_occupancy
 _atom_site_calc_flag
 _atom_site_refinement_flags
 _atom_site_disorder_assembly
 _atom_site_disorder_group
  La1 La -0.00038(2) -0.01595(4) 0.00261(3) Uani 0.00412(6) 16 0.125 d . . .
  La2 La -0.00100(6) 0.29325(5) -0.08934(5) Uani 0.00459(6) 16 0.0417 d . . .
  La3 La -0.00312(6) -0.22936(7) 0.04879(5) Uani 0.00939(7) 16 0.0417 d . . .
  Ti11 Ti 0.25 0 0.5 Uani 0.00251(14) 8 0.02(2) d . . .
  Fe11 Fe 0.25 0 0.5 Uani 0.00251(14) 8 0.02(2) d . . .
  Ti12 Ti 0.25 0 0.5 Uani 0.00251(14) 16 0.035(18) d . . .
  Fe12 Fe 0.25 0 0.5 Uani 0.00251(14) 16 0.007(18) d . . .
  Ti13 Ti 0.25 0 0.5 Uani 0.00251(14) 16 0.041(16) d . . .
  Fe13 Fe 0.25 0 0.5 Uani 0.00251(14) 16 0.000(16) d . . .
  Ti21 Ti 0.75 0 0.5 Uani 0.00228(13) 8 0.02(2) d . . .
  Fe21 Fe 0.75 0 0.5 Uani 0.00228(13) 8 0.02(2) d . . .
  Ti22 Ti 0.75 0 0.5 Uani 0.00228(13) 16 0.036(18) d . . .
  Fe22 Fe 0.75 0 0.5 Uani 0.00228(13) 16 0.006(18) d . . .
  Ti23 Ti 0.75 0 0.5 Uani 0.00228(13) 16 0.040(16) d . . .
  Fe23 Fe 0.75 0 0.5 Uani 0.00228(13) 16 0.002(16) d . . .
  O1 O -0.0001(2) 0.0035(3) 0.5528(4) Uani 0.0064(4) 16 0.2083 d . . .
  O2 O 0.2268(2) 0.2149(3) 0.2078(3) Uani 0.0051(4) 16 0.25 d . . .
  O3 O 0.7737(3) 0.2062(3) 0.2027(3) Uani 0.0061(4) 16 0.25 d . . .

loop_
 _atom_site_aniso_label
 _atom_site_aniso_type_symbol
 _atom_site_aniso_U_11
 _atom_site_aniso_U_22
 _atom_site_aniso_U_33
 _atom_site_aniso_U_12
 _atom_site_aniso_U_13
 _atom_site_aniso_U_23
 La1 La 0.00285(10) 0.00511(10) 0.00440(10) 0.00036(11) -0.00001(9) -0.00159(4)
 La2 La 0.00196(10) 0.00813(13) 0.00370(10) -0.00113(13) 0.00046(13) -0.00247(8)
 La3 La 0.00150(11) 0.01790(16) 0.00877(11) 0.00115(15) -0.00065(15)
 -0.00642(11)
 Ti11 Ti 0.0031(2) 0.0023(3) 0.0022(2) -0.0005(4) -0.0001(3) -0.00037(15)
 Fe11 Fe 0.0031(2) 0.0023(3) 0.0022(2) -0.0005(4) -0.0001(3) -0.00037(15)
 Ti12 Ti 0.0031(2) 0.0023(3) 0.0022(2) -0.0005(4) -0.0001(3) -0.00037(15)
 Fe12 Fe 0.0031(2) 0.0023(3) 0.0022(2) -0.0005(4) -0.0001(3) -0.00037(15)
 Ti13 Ti 0.0031(2) 0.0023(3) 0.0022(2) -0.0005(4) -0.0001(3) -0.00037(15)
 Fe13 Fe 0.0031(2) 0.0023(3) 0.0022(2) -0.0005(4) -0.0001(3) -0.00037(15)
 Ti21 Ti 0.0028(2) 0.0023(3) 0.0017(2) -0.0001(4) 0.0004(3) 0.00008(15)
 Fe21 Fe 0.0028(2) 0.0023(3) 0.0017(2) -0.0001(4) 0.0004(3) 0.00008(15)
 Ti22 Ti 0.0028(2) 0.0023(3) 0.0017(2) -0.0001(4) 0.0004(3) 0.00008(15)
 Fe22 Fe 0.0028(2) 0.0023(3) 0.0017(2) -0.0001(4) 0.0004(3) 0.00008(15)
 Ti23 Ti 0.0028(2) 0.0023(3) 0.0017(2) -0.0001(4) 0.0004(3) 0.00008(15)
 Fe23 Fe 0.0028(2) 0.0023(3) 0.0017(2) -0.0001(4) 0.0004(3) 0.00008(15)
 O1 O 0.0035(7) 0.0071(8) 0.0086(7) -0.0006(7) 0.0001(5) -0.0011(6)
 O2 O 0.0052(8) 0.0049(7) 0.0054(6) 0.0004(6) -0.0003(5) 0.0008(5)
 O3 O 0.0086(8) 0.0054(7) 0.0043(6) -0.0001(6) 0.0005(5) 0.0034(5)


loop_
 _atom_site_Fourier_wave_vector_seq_id
 _jana_atom_site_Fourier_wave_vector_q1_coeff
    1    1
    2    2
    3    3
    4    4
    5    5
    6    6

loop_
 _jana_atom_site_crenel_ortho_func_id
 _jana_atom_site_crenel_ortho_func_c
 _jana_atom_site_crenel_ortho_func_w
 _jana_atom_site_crenel_ortho_func_eps
 1  0.000000  0.125000  0.950000
 2  0.000000  0.208333  0.950000
 3  0.000000  0.250000  0.950000
 4  0.000000  0.250000  0.950000

loop_
_atom_site_occ_Fourier_atom_site_label
_atom_site_occ_Fourier_wave_vector_seq_id
_atom_site_occ_Fourier_param_cos
_atom_site_occ_Fourier_param_sin
 ? ? ? ?

loop_
_jana_atom_site_occ_Legendre_atom_site_label
_jana_atom_site_occ_Legendre_param_order
_jana_atom_site_occ_Legendre_param_coeff
 ? ? ?

loop_
_jana_atom_site_occ_crenel_ortho_atom_site_label
_jana_atom_site_occ_crenel_ortho_param_order
_jana_atom_site_occ_crenel_ortho_id
_jana_atom_site_occ_crenel_ortho_param_coeff
 ? ? ? ?

loop_
 _atom_site_occ_special_func_atom_site_label
 _atom_site_occ_special_func_crenel_c
 _atom_site_occ_special_func_crenel_w
 La1  0  0.125
 La2  0.107728(4)  0.0417
 La3 -0.102405(5)  0.0417
 Ti11  0  0.0417
 Fe11  0  0.0417
 Ti12  0.0417  0.0417
 Fe12  0.0417  0.0417
 Ti13  0.0833  0.0417
 Fe13  0.0833  0.0417
 Ti21  0  0.0417
 Fe21  0  0.0417
 Ti22  0.0417  0.0417
 Fe22  0.0417  0.0417
 Ti23  0.0833  0.0417
 Fe23  0.0833  0.0417
 O1  0  0.2083
 O2  0  0.25
 O3  0  0.25

loop_
 _atom_site_displace_Fourier_atom_site_label
 _atom_site_displace_Fourier_axis
 _atom_site_displace_Fourier_wave_vector_seq_id
 _atom_site_displace_Fourier_param_cos
 _atom_site_displace_Fourier_param_sin
 Ti11  x  1     0               -0.0054(4)
 Ti11  y  1     0                0.1277(3)
 Ti11  z  1     0               -0.0796(3)
 Ti11  x  2     0                0
 Ti11  y  2     0                0
 Ti11  z  2     0                0
 Ti11  x  3     0                0
 Ti11  y  3     0                0
 Ti11  z  3     0                0
 Ti11  x  4     0                0
 Ti11  y  4     0                0
 Ti11  z  4     0                0
 Ti11  x  5     0                0
 Ti11  y  5     0                0
 Ti11  z  5     0                0
 Ti11  x  6     0                0.0007(2)
 Ti11  y  6     0                0.02420(17)
 Ti11  z  6     0                0.02892(15)
 Fe11  x  1     0               -0.0054(4)
 Fe11  y  1     0                0.1277(3)
 Fe11  z  1     0               -0.0796(3)
 Fe11  x  2     0                0
 Fe11  y  2     0                0
 Fe11  z  2     0                0
 Fe11  x  3     0                0
 Fe11  y  3     0                0
 Fe11  z  3     0                0
 Fe11  x  4     0                0
 Fe11  y  4     0                0
 Fe11  z  4     0                0
 Fe11  x  5     0                0
 Fe11  y  5     0                0
 Fe11  z  5     0                0
 Fe11  x  6     0                0.0007(2)
 Fe11  y  6     0                0.02420(17)
 Fe11  z  6     0                0.02892(15)
 Ti12  x  1     0               -0.0054(4)
 Ti12  y  1     0                0.1277(3)
 Ti12  z  1     0               -0.0796(3)
 Ti12  x  2     0                0
 Ti12  y  2     0                0
 Ti12  z  2     0                0
 Ti12  x  3     0                0
 Ti12  y  3     0                0
 Ti12  z  3     0                0
 Ti12  x  4     0                0
 Ti12  y  4     0                0
 Ti12  z  4     0                0
 Ti12  x  5     0                0
 Ti12  y  5     0                0
 Ti12  z  5     0                0
 Ti12  x  6     0                0.0007(2)
 Ti12  y  6     0                0.02420(17)
 Ti12  z  6     0                0.02892(15)
 Fe12  x  1     0               -0.0054(4)
 Fe12  y  1     0                0.1277(3)
 Fe12  z  1     0               -0.0796(3)
 Fe12  x  2     0                0
 Fe12  y  2     0                0
 Fe12  z  2     0                0
 Fe12  x  3     0                0
 Fe12  y  3     0                0
 Fe12  z  3     0                0
 Fe12  x  4     0                0
 Fe12  y  4     0                0
 Fe12  z  4     0                0
 Fe12  x  5     0                0
 Fe12  y  5     0                0
 Fe12  z  5     0                0
 Fe12  x  6     0                0.0007(2)
 Fe12  y  6     0                0.02420(17)
 Fe12  z  6     0                0.02892(15)
 Ti13  x  1     0               -0.0054(4)
 Ti13  y  1     0                0.1277(3)
 Ti13  z  1     0               -0.0796(3)
 Ti13  x  2     0                0
 Ti13  y  2     0                0
 Ti13  z  2     0                0
 Ti13  x  3     0                0
 Ti13  y  3     0                0
 Ti13  z  3     0                0
 Ti13  x  4     0                0
 Ti13  y  4     0                0
 Ti13  z  4     0                0
 Ti13  x  5     0                0
 Ti13  y  5     0                0
 Ti13  z  5     0                0
 Ti13  x  6     0                0.0007(2)
 Ti13  y  6     0                0.02420(17)
 Ti13  z  6     0                0.02892(15)
 Fe13  x  1     0               -0.0054(4)
 Fe13  y  1     0                0.1277(3)
 Fe13  z  1     0               -0.0796(3)
 Fe13  x  2     0                0
 Fe13  y  2     0                0
 Fe13  z  2     0                0
 Fe13  x  3     0                0
 Fe13  y  3     0                0
 Fe13  z  3     0                0
 Fe13  x  4     0                0
 Fe13  y  4     0                0
 Fe13  z  4     0                0
 Fe13  x  5     0                0
 Fe13  y  5     0                0
 Fe13  z  5     0                0
 Fe13  x  6     0                0.0007(2)
 Fe13  y  6     0                0.02420(17)
 Fe13  z  6     0                0.02892(15)
 Ti21  x  1     0                0.0017(4)
 Ti21  y  1     0                0.1438(3)
 Ti21  z  1     0               -0.0870(3)
 Ti21  x  2     0                0
 Ti21  y  2     0                0
 Ti21  z  2     0                0
 Ti21  x  3     0                0
 Ti21  y  3     0                0
 Ti21  z  3     0                0
 Ti21  x  4     0                0
 Ti21  y  4     0                0
 Ti21  z  4     0                0
 Ti21  x  5     0                0
 Ti21  y  5     0                0
 Ti21  z  5     0                0
 Ti21  x  6     0               -0.0030(2)
 Ti21  y  6     0                0.02309(18)
 Ti21  z  6     0                0.02957(15)
 Fe21  x  1     0                0.0017(4)
 Fe21  y  1     0                0.1438(3)
 Fe21  z  1     0               -0.0870(3)
 Fe21  x  2     0                0
 Fe21  y  2     0                0
 Fe21  z  2     0                0
 Fe21  x  3     0                0
 Fe21  y  3     0                0
 Fe21  z  3     0                0
 Fe21  x  4     0                0
 Fe21  y  4     0                0
 Fe21  z  4     0                0
 Fe21  x  5     0                0
 Fe21  y  5     0                0
 Fe21  z  5     0                0
 Fe21  x  6     0               -0.0030(2)
 Fe21  y  6     0                0.02309(18)
 Fe21  z  6     0                0.02957(15)
 Ti22  x  1     0                0.0017(4)
 Ti22  y  1     0                0.1438(3)
 Ti22  z  1     0               -0.0870(3)
 Ti22  x  2     0                0
 Ti22  y  2     0                0
 Ti22  z  2     0                0
 Ti22  x  3     0                0
 Ti22  y  3     0                0
 Ti22  z  3     0                0
 Ti22  x  4     0                0
 Ti22  y  4     0                0
 Ti22  z  4     0                0
 Ti22  x  5     0                0
 Ti22  y  5     0                0
 Ti22  z  5     0                0
 Ti22  x  6     0               -0.0030(2)
 Ti22  y  6     0                0.02309(18)
 Ti22  z  6     0                0.02957(15)
 Fe22  x  1     0                0.0017(4)
 Fe22  y  1     0                0.1438(3)
 Fe22  z  1     0               -0.0870(3)
 Fe22  x  2     0                0
 Fe22  y  2     0                0
 Fe22  z  2     0                0
 Fe22  x  3     0                0
 Fe22  y  3     0                0
 Fe22  z  3     0                0
 Fe22  x  4     0                0
 Fe22  y  4     0                0
 Fe22  z  4     0                0
 Fe22  x  5     0                0
 Fe22  y  5     0                0
 Fe22  z  5     0                0
 Fe22  x  6     0               -0.0030(2)
 Fe22  y  6     0                0.02309(18)
 Fe22  z  6     0                0.02957(15)
 Ti23  x  1     0                0.0017(4)
 Ti23  y  1     0                0.1438(3)
 Ti23  z  1     0               -0.0870(3)
 Ti23  x  2     0                0
 Ti23  y  2     0                0
 Ti23  z  2     0                0
 Ti23  x  3     0                0
 Ti23  y  3     0                0
 Ti23  z  3     0                0
 Ti23  x  4     0                0
 Ti23  y  4     0                0
 Ti23  z  4     0                0
 Ti23  x  5     0                0
 Ti23  y  5     0                0
 Ti23  z  5     0                0
 Ti23  x  6     0               -0.0030(2)
 Ti23  y  6     0                0.02309(18)
 Ti23  z  6     0                0.02957(15)
 Fe23  x  1     0                0.0017(4)
 Fe23  y  1     0                0.1438(3)
 Fe23  z  1     0               -0.0870(3)
 Fe23  x  2     0                0
 Fe23  y  2     0                0
 Fe23  z  2     0                0
 Fe23  x  3     0                0
 Fe23  y  3     0                0
 Fe23  z  3     0                0
 Fe23  x  4     0                0
 Fe23  y  4     0                0
 Fe23  z  4     0                0
 Fe23  x  5     0                0
 Fe23  y  5     0                0
 Fe23  z  5     0                0
 Fe23  x  6     0               -0.0030(2)
 Fe23  y  6     0                0.02309(18)
 Fe23  z  6     0                0.02957(15)

loop_
_jana_atom_site_displace_Legendre_atom_site_label
_jana_atom_site_displace_Legendre_axis
_jana_atom_site_displace_Legendre_param_order
_jana_atom_site_displace_Legendre_param_coeff
 ? ? ? ?

loop_
 _jana_atom_site_displace_crenel_ortho_atom_site_label
 _jana_atom_site_displace_crenel_ortho_axis
 _jana_atom_site_displace_crenel_ortho_id
 _jana_atom_site_displace_crenel_ortho_param_order
 _jana_atom_site_displace_crenel_ortho_param_coeff
 La1   x  1  1 -0.00037(6)
 La1   y  1  1  0.03266(3)
 La1   z  1  1  0.00213(3)
 La1   x  1  2  0.00023(3)
 La1   y  1  2  0.00120(4)
 La1   z  1  2 -0.00103(4)
 O1    x  2  1  0.0002(3)
 O1    y  2  1  0.0110(4)
 O1    z  2  1 -0.0137(3)
 O1    x  2  2 -0.0003(3)
 O1    y  2  2  0.0143(4)
 O1    z  2  2  0.0020(4)
 O1    x  2  3 -0.0007(4)
 O1    y  2  3  0.0032(4)
 O1    z  2  3  0.0077(4)
 O1    x  2  4  0.0003(4)
 O1    y  2  4 -0.0152(5)
 O1    z  2  4  0.0011(5)
 O2    x  3  1 -0.0003(2)
 O2    y  3  1  0.0340(3)
 O2    z  3  1  0.0034(3)
 O2    x  3  2 -0.0091(3)
 O2    y  3  2 -0.0058(3)
 O2    z  3  2  0.0150(3)
 O2    x  3  3  0.0113(3)
 O2    y  3  3 -0.0056(4)
 O2    z  3  3 -0.0077(4)
 O2    x  3  4  0.0051(3)
 O2    y  3  4  0.0086(4)
 O2    z  3  4 -0.0019(3)
 O2    x  3  5 -0.0117(4)
 O2    y  3  5  0.0046(5)
 O2    z  3  5  0.0034(5)
 O2    x  3  6  0
 O2    y  3  6  0
 O2    z  3  6  0
 O3    x  4  1 -0.0002(3)
 O3    y  4  1  0.0350(3)
 O3    z  4  1  0.0013(3)
 O3    x  4  2  0.0058(3)
 O3    y  4  2  0.0012(3)
 O3    z  4  2  0.0176(3)
 O3    x  4  3 -0.0115(3)
 O3    y  4  3 -0.0054(4)
 O3    z  4  3 -0.0064(4)
 O3    x  4  4 -0.0026(3)
 O3    y  4  4  0.0059(4)
 O3    z  4  4 -0.0017(3)
 O3    x  4  5  0.0122(4)
 O3    y  4  5  0.0047(5)
 O3    z  4  5  0.0025(5)
 O3    x  4  6  0
 O3    y  4  6  0
 O3    z  4  6  0

loop_
 _jana_atom_site_U_crenel_ortho_atom_site_label
 _jana_atom_site_U_crenel_ortho_tens_elem
 _jana_atom_site_U_crenel_ortho_id
 _jana_atom_site_U_crenel_ortho_param_order
 _jana_atom_site_U_crenel_ortho_param_coeff
 La1   U11  1  1  0.00017(5)
 La1   U22  1  1  0.00117(7)
 La1   U33  1  1  0.00071(6)
 La1   U12  1  1 -0.00020(7)
 La1   U13  1  1  0.00004(5)
 La1   U23  1  1 -0.00039(5)
 La1   U11  1  2  0.00106(7)
 La1   U22  1  2 -0.00060(7)
 La1   U33  1  2 -0.00033(7)
 La1   U12  1  2 -0.00110(11)
 La1   U13  1  2  0.00039(12)
 La1   U23  1  2  0.00041(5)


#=======================================================================

# 10. MOLECULAR GEOMETRY


loop_
 _geom_bond_atom_site_label_1
 _geom_bond_atom_site_label_2
 _geom_bond_site_ssg_symmetry_1
 _geom_bond_site_ssg_symmetry_2
 _geom_bond_distance_av
 _geom_bond_distance_min
 _geom_bond_distance_max
 _geom_bond_publ_flag
  La1 O1 . 1_5545 2.47(3) 2.47(3) 2.47(3) ?
  La1 O1 . . 3.08(3) 3.08(3) 3.08(3) ?
  La1 O2 . . 2.45(3) 2.45(3) 2.45(3) ?
  La1 O2 . 7_5555 2.77(3) 2.77(3) 2.77(3) ?
  La1 O3 . 1_4555 2.43(3) 2.43(3) 2.43(3) ?
  La1 O3 . 7_5555 2.75(3) 2.75(3) 2.75(3) ?
  La1 O11 . 8_4455 2.41(3) 2.41(3) 2.41(3) ?
  La1 O11 . 8_4555 3.15(3) 3.15(3) 3.15(3) ?
  La1 O21 . 8_4455 2.54(7) 2.54(7) 2.54(7) ?
  La1 O31 . 8_3455 2.41(8) 2.41(8) 2.41(8) ?
  La2 O1 . 1_5545 2.55(2) 2.55(2) 2.55(2) ?
  La2 O2 . . 2.44(3) 2.44(3) 2.44(3) ?
  La2 O2 . 2_5645 2.55(3) 2.55(3) 2.55(3) ?
  La2 O2 . 7_5555 3.47(3) 3.47(3) 3.47(3) ?
  La2 O3 . 1_4555 2.40(3) 2.40(3) 2.40(3) ?
  La2 O3 . 7_5555 3.43(3) 3.43(3) 3.43(3) ?
  La2 O21 . 5_4555 3.34(2) 3.34(2) 3.34(2) ?
  La2 O31 . 5_3555 3.50(3) 3.50(3) 3.50(3) ?
  La3 O1 . 1_5545 2.82(2) 2.82(2) 2.82(2) ?
  La3 O1 . . 3.10(2) 3.10(2) 3.10(2) ?
  La3 O2 . . 2.86(3) 2.86(3) 2.86(3) ?
  La3 O2 . 7_5555 2.52(3) 2.52(3) 2.52(3) ?
  La3 O3 . 1_4555 2.80(3) 2.80(3) 2.80(3) ?
  La3 O3 . 7_5555 2.44(3) 2.44(3) 2.44(3) ?
  La3 O3 . 4_4455 3.08(3) 3.08(3) 3.08(3) ?
  La3 O21 . 3_5555 3.45(2) 3.45(2) 3.45(2) ?
  La3 O21 . 8_4455 1.15(2) 1.15(2) 1.15(2) ?
  La3 O31 . 3_6555 3.36(3) 3.36(3) 3.36(3) ?
  La3 O31 . 8_3455 1.13(2) 1.13(2) 1.13(2) ?
  Ti11 O1 . . 1.98(3) 1.98(3) 1.98(3) ?
  Ti11 O1 . 7_5565 1.98(3) 1.98(3) 1.98(3) ?
  Ti11 O2 . . 1.97(3) 1.97(3) 1.97(3) ?
  Ti11 O2 . 7_5565 1.97(3) 1.97(3) 1.97(3) ?
  Ti11 O31 . 6_6655 3.14(8) 3.14(8) 3.14(8) ?
  Ti11 O31 . 8_3455 3.14(8) 3.14(8) 3.14(8) ?
  Fe11 O1 . . 1.98(3) 1.98(3) 1.98(3) ?
  Fe11 O1 . 7_5565 1.98(3) 1.98(3) 1.98(3) ?
  Fe11 O2 . . 1.97(3) 1.97(3) 1.97(3) ?
  Fe11 O2 . 7_5565 1.97(3) 1.97(3) 1.97(3) ?
  Fe11 O31 . 6_6655 3.14(8) 3.14(8) 3.14(8) ?
  Fe11 O31 . 8_3455 3.14(8) 3.14(8) 3.14(8) ?
  Ti13 O1 . . 1.99(2) 1.99(2) 1.99(2) ?
  Ti13 O1 . 7_5565 2.00(2) 2.00(2) 2.00(2) ?
  Ti13 O2 . . 1.83(3) 1.83(3) 1.83(3) ?
  Ti13 O2 . 7_5565 2.22(3) 2.22(3) 2.22(3) ?
  Ti13 O21 . 6_5655 3.13(2) 3.13(2) 3.13(2) ?
  Ti13 O31 . 6_6655 3.18(3) 3.18(3) 3.18(3) ?
  Ti13 O31 . 8_3455 2.83(8) 2.83(8) 2.83(8) ?
  Fe13 O1 . . 1.99(2) 1.99(2) 1.99(2) ?
  Fe13 O1 . 7_5565 2.00(2) 2.00(2) 2.00(2) ?
  Fe13 O2 . . 1.83(3) 1.83(3) 1.83(3) ?
  Fe13 O2 . 7_5565 2.22(3) 2.22(3) 2.22(3) ?
  Fe13 O21 . 6_5655 3.13(2) 3.13(2) 3.13(2) ?
  Fe13 O31 . 6_6655 3.18(3) 3.18(3) 3.18(3) ?
  Fe13 O31 . 8_3455 2.83(8) 2.83(8) 2.83(8) ?
  Ti21 O1 . 1_6555 1.98(3) 1.98(3) 1.98(3) ?
  Ti21 O1 . 7_5565 1.98(3) 1.98(3) 1.98(3) ?
  Ti21 O3 . . 1.97(3) 1.97(3) 1.97(3) ?
  Ti21 O3 . 7_6565 1.97(3) 1.97(3) 1.97(3) ?
  Ti21 O21 . 6_5655 3.22(7) 3.22(7) 3.22(7) ?
  Ti21 O21 . 8_5455 3.22(7) 3.22(7) 3.22(7) ?
  Fe21 O1 . 1_6555 1.98(3) 1.98(3) 1.98(3) ?
  Fe21 O1 . 7_5565 1.98(3) 1.98(3) 1.98(3) ?
  Fe21 O3 . . 1.97(3) 1.97(3) 1.97(3) ?
  Fe21 O3 . 7_6565 1.97(3) 1.97(3) 1.97(3) ?
  Fe21 O21 . 6_5655 3.22(7) 3.22(7) 3.22(7) ?
  Fe21 O21 . 8_5455 3.22(7) 3.22(7) 3.22(7) ?
  Ti23 O1 . 1_6555 2.02(2) 2.02(2) 2.02(2) ?
  Ti23 O1 . 7_5565 1.98(2) 1.98(2) 1.98(2) ?
  Ti23 O3 . . 1.77(3) 1.77(3) 1.77(3) ?
  Ti23 O3 . 7_6565 2.26(2) 2.26(2) 2.26(2) ?
  Ti23 O21 . 5_5555 3.03(2) 3.03(2) 3.03(2) ?
  Ti23 O21 . 6_5655 3.18(2) 3.18(2) 3.18(2) ?
  Ti23 O21 . 8_5455 3.12(8) 3.12(8) 3.12(8) ?
  Ti23 O31 . 5_4555 3.16(2) 3.16(2) 3.16(2) ?
  Ti23 O31 . 6_6655 2.95(3) 2.95(3) 2.95(3) ?
  Fe23 O1 . 1_6555 2.02(2) 2.02(2) 2.02(2) ?
  Fe23 O1 . 7_5565 1.98(2) 1.98(2) 1.98(2) ?
  Fe23 O3 . . 1.77(3) 1.77(3) 1.77(3) ?
  Fe23 O3 . 7_6565 2.26(2) 2.26(2) 2.26(2) ?
  Fe23 O21 . 5_5555 3.03(2) 3.03(2) 3.03(2) ?
  Fe23 O21 . 6_5655 3.18(2) 3.18(2) 3.18(2) ?
  Fe23 O21 . 8_5455 3.12(8) 3.12(8) 3.12(8) ?
  Fe23 O31 . 5_4555 3.16(2) 3.16(2) 3.16(2) ?
  Fe23 O31 . 6_6655 2.95(3) 2.95(3) 2.95(3) ?
  La11 O1 . 4_5555 2.58(2) 2.57(2) 2.584(18) ?
  La11 O1 . 4_5655 2.80(2) 2.755(19) 2.85(2) ?
  La11 O2 . 6_5645 3.21(3) 3.15(3) 3.26(3) ?
  La11 O2 . 4_5555 2.67(3) 2.67(3) 2.68(3) ?
  La11 O3 . 6_5645 3.24(3) 3.17(3) 3.30(3) ?
  La11 O3 . 4_4555 2.71(3) 2.71(3) 2.72(3) ?
  La11 O11 . 1_5545 2.68(3) 2.64(3) 2.72(3) ?
  La11 O11 . . 2.93(3) 2.92(3) 2.95(3) ?
  La11 O21 . . 2.60(8) 1.96(7) 3.23(9) ?
  La11 O21 . 3_5655 3.26(8) 2.77(9) 3.75(8) ?
  La11 O31 . 1_4555 2.49(8) 1.92(7) 3.07(9) ?
  La11 O31 . 3_7655 3.30(8) 2.78(9) 3.83(8) ?
  Ti121 O2 . 6_5655 1.84(3) 1.84(3) 1.84(3) ?
  Ti121 O2 . 4_5555 2.16(3) 2.16(3) 2.16(3) ?
  Ti121 O11 . . 1.94(4) 1.94(4) 1.94(4) ?
  Ti121 O11 . 3_6665 2.00(3) 2.00(3) 2.00(3) ?
  Ti121 O21 . 3_6665 2.82(8) 2.82(8) 2.82(8) ?
  Ti121 O31 . 1_4555 0.93(8) 0.93(8) 0.93(8) ?
  Ti121 O31 . 3_7665 1.92(8) 1.92(8) 1.92(8) ?
  Fe121 O2 . 6_5655 1.84(3) 1.84(3) 1.84(3) ?
  Fe121 O2 . 4_5555 2.16(3) 2.16(3) 2.16(3) ?
  Fe121 O11 . . 1.94(4) 1.94(4) 1.94(4) ?
  Fe121 O11 . 3_6665 2.00(3) 2.00(3) 2.00(3) ?
  Fe121 O21 . 3_6665 2.82(8) 2.82(8) 2.82(8) ?
  Fe121 O31 . 1_4555 0.93(8) 0.93(8) 0.93(8) ?
  Fe121 O31 . 3_7665 1.92(8) 1.92(8) 1.92(8) ?
  Ti221 O3 . 6_6655 1.83(3) 1.83(3) 1.83(3) ?
  Ti221 O3 . 4_5555 2.18(3) 2.18(3) 2.18(3) ?
  Ti221 O11 . 1_6555 2.01(4) 2.01(4) 2.01(4) ?
  Ti221 O11 . 3_6665 2.01(3) 2.01(3) 2.01(3) ?
  Ti221 O21 . 1_6555 0.72(8) 0.72(8) 0.72(8) ?
  Ti221 O21 . 3_6665 1.74(8) 1.74(8) 1.74(8) ?
  Ti221 O31 . 3_7665 2.75(8) 2.75(8) 2.75(8) ?
  Fe221 O3 . 6_6655 1.83(3) 1.83(3) 1.83(3) ?
  Fe221 O3 . 4_5555 2.18(3) 2.18(3) 2.18(3) ?
  Fe221 O11 . 1_6555 2.01(4) 2.01(4) 2.01(4) ?
  Fe221 O11 . 3_6665 2.01(3) 2.01(3) 2.01(3) ?
  Fe221 O21 . 1_6555 0.72(8) 0.72(8) 0.72(8) ?
  Fe221 O21 . 3_6665 1.74(8) 1.74(8) 1.74(8) ?
  Fe221 O31 . 3_7665 2.75(8) 2.75(8) 2.75(8) ?

#=======================================================================
data_n5_320K
#=======================================================================

# 5. CHEMICAL DATA

_chemical_name_systematic
?
_chemical_name_common                    ?
_chemical_formula_moiety                 ?
_chemical_formula_structural             ?
_chemical_formula_analytical             ?
_chemical_formula_iupac                  ?
_chemical_formula_sum                    'Fe0.615 La3.333 O11.333 Ti2.718'
_chemical_formula_weight                 808.8
_chemical_melting_point                  ?
_chemical_compound_source                ?
_chemical_absolute_configuration         .

#=======================================================================

# 6. CRYSTAL DATA

_symmetry_cell_setting                   monoclinic
_space_group_ssg_name                    'X21/b(\a\b0)00'
loop_
 _space_group_symop_ssg_id
 _space_group_symop_ssg_operation_algebraic
 1   x1,x2,x3,x4
 2   -x1+1/4,-x2,x3+1/2,-x4+1/4
 3   -x1,-x2,-x3,-x4+1/2
 4   x1,x2+1/2,-x3+1/2,x4
 5   x1+1/2,x2,x3,x4+1/2
 6   -x1+3/4,-x2,x3+1/2,-x4+3/4
 7   -x1+1/2,-x2,-x3,-x4
 8   x1+1/2,x2+1/2,-x3+1/2,x4+1/2
 9   x1+3/4,x2+1/2,x3,x4+1/4
 10  -x1,-x2+1/2,x3+1/2,-x4+1/2
 11  -x1+3/4,-x2+1/2,-x3,-x4+3/4
 12  x1+3/4,x2,-x3+1/2,x4+1/4
 13  x1+1/4,x2+1/2,x3,x4+3/4
 14  -x1+1/2,-x2+1/2,x3+1/2,-x4
 15  -x1+1/4,-x2+1/2,-x3,-x4+1/4
 16  x1+1/4,x2,-x3+1/2,x4+3/4
_cell_length_a                           7.8394(15)
_cell_length_b                           5.2244(13)
_cell_length_c                           5.54680(11)
_cell_angle_alpha                        90
_cell_angle_beta                         90
_cell_angle_gamma                        89.997(16)
_cell_volume                             227.18(8)

loop_
 _jana_cell_twin_matrix_id
 _jana_cell_twin_volume_fraction
 _jana_cell_twin_matrix_1_1
 _jana_cell_twin_matrix_1_2
 _jana_cell_twin_matrix_1_3
 _jana_cell_twin_matrix_2_1
 _jana_cell_twin_matrix_2_2
 _jana_cell_twin_matrix_2_3
 _jana_cell_twin_matrix_3_1
 _jana_cell_twin_matrix_3_2
 _jana_cell_twin_matrix_3_3
1 0.6154(12)
1 0 0
0 1 0
0 0 1
2 0.3846(12)
1 0 0
0 -1 0
0 0 -1

_cell_modulation_dimension               1
loop_
 _cell_wave_vector_seq_id
 _cell_wave_vector_x
 _cell_wave_vector_y
 _cell_wave_vector_z
 1  0.000000  0.083333  0.000000

_jana_cell_commen_supercell_matrix_1_1   1
_jana_cell_commen_supercell_matrix_1_2   0
_jana_cell_commen_supercell_matrix_1_3   0
_jana_cell_commen_supercell_matrix_2_1   0
_jana_cell_commen_supercell_matrix_2_2   12
_jana_cell_commen_supercell_matrix_2_3   0
_jana_cell_commen_supercell_matrix_3_1   0
_jana_cell_commen_supercell_matrix_3_2   0
_jana_cell_commen_supercell_matrix_3_3   1
_jana_cell_commen_t_section_1            0

_cell_formula_units_Z                    1

_cell_measurement_reflns_used            ?
_cell_measurement_theta_min              ?
_cell_measurement_theta_max              ?
_cell_measurement_temperature            320
_cell_special_details
?

_exptl_crystal_density_diffrn            5.9098
_exptl_crystal_density_meas              ?
_exptl_crystal_density_method            ?
_exptl_crystal_F_000                     178

_exptl_absorpt_coefficient_mu            18.591
_exptl_crystal_description               ?
_exptl_crystal_size_max                  ?
_exptl_crystal_size_mid                  ?
_exptl_crystal_size_min                  ?
_exptl_crystal_size_rad                  ?
_exptl_crystal_colour                    ?
_exptl_absorpt_correction_type           ?
_exptl_absorpt_process_details           ?
_exptl_absorpt_correction_T_min          ?
_exptl_absorpt_correction_T_max          ?

#=======================================================================

# 7. EXPERIMENTAL DATA

_exptl_special_details                   ?

_diffrn_ambient_temperature              320
_diffrn_source                           ?
_diffrn_source_power                     ?
_diffrn_source_voltage                   ?
_diffrn_source_current                   ?
_diffrn_radiation_type                   'Mo K\a'
_diffrn_radiation_source                 'X-ray tube'
_diffrn_radiation_wavelength             0.71069
_diffrn_radiation_monochromator          graphite
_diffrn_measurement_device               'four-cycle diffractometer'
_diffrn_measurement_device_type          'Bruker CCD'
_diffrn_detector                         ?
_diffrn_detector_area_resol_mean         ?
_diffrn_measurement_method               ?
_diffrn_measurement_specimen_support     ?

_diffrn_reflns_number                    58267
_diffrn_reflns_theta_min                 2.6
_diffrn_reflns_theta_max                 36.48
_diffrn_reflns_theta_full                34.01
_diffrn_measured_fraction_theta_max      0.94
_diffrn_measured_fraction_theta_full     0.98
_diffrn_reflns_av_R_equivalents          0.0437
_diffrn_reflns_av_sigmaI/netI            0.0219
_diffrn_reflns_limit_h_min               -13
_diffrn_reflns_limit_h_max               13
_diffrn_reflns_limit_k_min               -8
_diffrn_reflns_limit_k_max               8
_diffrn_reflns_limit_l_min               -9
_diffrn_reflns_limit_l_max               9
_diffrn_reflns_limit_index_m_1_min       -5
_diffrn_reflns_limit_index_m_1_max       6
_diffrn_reflns_reduction_process         ?

_diffrn_standards_number                 ?
_diffrn_standards_interval_count         ?
_diffrn_standards_interval_time          ?
_diffrn_standards_decay_%                ?
loop_
_diffrn_standard_refln_index_h
_diffrn_standard_refln_index_k
_diffrn_standard_refln_index_l
  ? ? ?

#=======================================================================

# 8. REFINEMENT DATA

_refine_special_details
?

_reflns_number_total                     6525
_reflns_number_gt                        6149
_reflns_threshold_expression             'I>3\s(I)'

_refine_ls_structure_factor_coef         F
_refine_ls_R_factor_gt                   0.0339
_refine_ls_wR_factor_gt                  0.0498
_refine_ls_R_factor_all                  0.0370
_refine_ls_wR_factor_ref                 0.0500
_refine_ls_goodness_of_fit_ref           2.84
_refine_ls_goodness_of_fit_gt            2.91
_refine_ls_restrained_S_gt               ?
_refine_ls_restrained_S_all              ?
_refine_ls_number_reflns                 6525
_refine_ls_number_parameters             147
_refine_ls_number_restraints             0
_refine_ls_number_constraints            8
_refine_ls_weighting_scheme              sigma
_refine_ls_weighting_details             'w=1/(\s^2^(F)+0.0001F^2^)'
_refine_ls_hydrogen_treatment            ?
_refine_ls_shift/su_max                  0.0182
_refine_ls_shift/su_mean                 0.0004
_refine_diff_density_max                 5.32
_refine_diff_density_min                 -4.41
_refine_ls_extinction_method
 'B-C type 1 Gaussian isotropic (Becker & Coppens, 1974)'
_refine_ls_extinction_coef               1390(60)
_refine_ls_abs_structure_details         ?
_refine_ls_abs_structure_Flack           ?
_refine_ls_abs_structure_Rogers          ?

loop_
 _atom_type_symbol
 _atom_type_scat_dispersion_real
 _atom_type_scat_dispersion_imag
 _atom_type_scat_source
 Fe  0.3463  0.8444
 'International Tables Vol C tables 4.2.6.8 and 6.1.1.1'
 La -0.2871  2.4523
 'International Tables Vol C tables 4.2.6.8 and 6.1.1.1'
 O   0.0106  0.0060
 'International Tables Vol C tables 4.2.6.8 and 6.1.1.1'
 Ti  0.2776  0.4457
 'International Tables Vol C tables 4.2.6.8 and 6.1.1.1'

_computing_data_collection               ?
_computing_cell_refinement               ?
_computing_data_reduction                ?
_computing_structure_solution            ?
_computing_structure_refinement          ?
_computing_molecular_graphics            ?
_computing_publication_material          ?

#=======================================================================

# 9. ATOMIC COORDINATES AND DISPLACEMENT PARAMETERS

loop_
 _atom_site_label
 _atom_site_type_symbol
 _atom_site_fract_x
 _atom_site_fract_y
 _atom_site_fract_z
 _atom_site_adp_type
 _atom_site_U_iso_or_equiv
 _atom_site_symmetry_multiplicity
 _atom_site_occupancy
 _atom_site_calc_flag
 _atom_site_refinement_flags
 _atom_site_disorder_assembly
 _atom_site_disorder_group
  La1 La -0.00037(2) -0.01574(4) 0.00257(3) Uani 0.00530(5) 16 0.125 d . . .
  La2 La -0.00112(6) 0.29308(5) -0.08915(5) Uani 0.00583(6) 16 0.0417 d . . .
  La3 La -0.00288(6) -0.22976(7) 0.04918(6) Uani 0.01076(7) 16 0.0417 d . . .
  Ti11 Ti 0.25 0 0.5 Uani 0.00346(12) 8 0.02(2) d . . .
  Fe11 Fe 0.25 0 0.5 Uani 0.00346(12) 8 0.02(2) d . . .
  Ti12 Ti 0.25 0 0.5 Uani 0.00346(12) 16 0.034(18) d . . .
  Fe12 Fe 0.25 0 0.5 Uani 0.00346(12) 16 0.008(18) d . . .
  Ti13 Ti 0.25 0 0.5 Uani 0.00346(12) 16 0.041(16) d . . .
  Fe13 Fe 0.25 0 0.5 Uani 0.00346(12) 16 0.000(16) d . . .
  Ti21 Ti 0.75 0 0.5 Uani 0.00340(12) 8 0.02(2) d . . .
  Fe21 Fe 0.75 0 0.5 Uani 0.00340(12) 8 0.02(2) d . . .
  Ti22 Ti 0.75 0 0.5 Uani 0.00340(12) 16 0.034(18) d . . .
  Fe22 Fe 0.75 0 0.5 Uani 0.00340(12) 16 0.008(18) d . . .
  Ti23 Ti 0.75 0 0.5 Uani 0.00340(12) 16 0.039(16) d . . .
  Fe23 Fe 0.75 0 0.5 Uani 0.00340(12) 16 0.002(16) d . . .
  O1 O -0.0001(2) 0.0031(3) 0.5529(3) Uani 0.0074(4) 16 0.2083 d . . .
  O2 O 0.2271(2) 0.2149(3) 0.2076(3) Uani 0.0069(4) 16 0.25 d . . .
  O3 O 0.7741(2) 0.2062(3) 0.2027(3) Uani 0.0067(4) 16 0.25 d . . .

loop_
 _atom_site_aniso_label
 _atom_site_aniso_type_symbol
 _atom_site_aniso_U_11
 _atom_site_aniso_U_22
 _atom_site_aniso_U_33
 _atom_site_aniso_U_12
 _atom_site_aniso_U_13
 _atom_site_aniso_U_23
 La1 La 0.00383(8) 0.00669(9) 0.00538(9) 0.00022(10) -0.00023(8) -0.00169(4)
 La2 La 0.00293(9) 0.00978(13) 0.00478(10) -0.00087(12) 0.00046(13) -0.00254(8)
 La3 La 0.00256(10) 0.01949(15) 0.01022(11) 0.00090(15) -0.00035(15)
 -0.00665(11)
 Ti11 Ti 0.0039(2) 0.0037(2) 0.0028(2) -0.0003(4) -0.0008(2) -0.00040(14)
 Fe11 Fe 0.0039(2) 0.0037(2) 0.0028(2) -0.0003(4) -0.0008(2) -0.00040(14)
 Ti12 Ti 0.0039(2) 0.0037(2) 0.0028(2) -0.0003(4) -0.0008(2) -0.00040(14)
 Fe12 Fe 0.0039(2) 0.0037(2) 0.0028(2) -0.0003(4) -0.0008(2) -0.00040(14)
 Ti13 Ti 0.0039(2) 0.0037(2) 0.0028(2) -0.0003(4) -0.0008(2) -0.00040(14)
 Fe13 Fe 0.0039(2) 0.0037(2) 0.0028(2) -0.0003(4) -0.0008(2) -0.00040(14)
 Ti21 Ti 0.0038(2) 0.0038(2) 0.0026(2) 0.0000(4) -0.0005(2) 0.00000(14)
 Fe21 Fe 0.0038(2) 0.0038(2) 0.0026(2) 0.0000(4) -0.0005(2) 0.00000(14)
 Ti22 Ti 0.0038(2) 0.0038(2) 0.0026(2) 0.0000(4) -0.0005(2) 0.00000(14)
 Fe22 Fe 0.0038(2) 0.0038(2) 0.0026(2) 0.0000(4) -0.0005(2) 0.00000(14)
 Ti23 Ti 0.0038(2) 0.0038(2) 0.0026(2) 0.0000(4) -0.0005(2) 0.00000(14)
 Fe23 Fe 0.0038(2) 0.0038(2) 0.0026(2) 0.0000(4) -0.0005(2) 0.00000(14)
 O1 O 0.0038(6) 0.0082(7) 0.0100(7) -0.0012(7) 0.0003(5) -0.0005(5)
 O2 O 0.0074(7) 0.0071(7) 0.0062(6) -0.0003(5) -0.0001(5) 0.0012(5)
 O3 O 0.0087(8) 0.0069(7) 0.0046(6) -0.0002(5) 0.0008(5) 0.0029(5)


loop_
 _atom_site_Fourier_wave_vector_seq_id
 _jana_atom_site_Fourier_wave_vector_q1_coeff
    1    1
    2    2
    3    3
    4    4
    5    5
    6    6

loop_
 _jana_atom_site_crenel_ortho_func_id
 _jana_atom_site_crenel_ortho_func_c
 _jana_atom_site_crenel_ortho_func_w
 _jana_atom_site_crenel_ortho_func_eps
 1  0.000000  0.125000  0.950000
 2  0.000000  0.208333  0.950000
 3  0.000000  0.250000  0.950000
 4  0.000000  0.250000  0.950000

loop_
_atom_site_occ_Fourier_atom_site_label
_atom_site_occ_Fourier_wave_vector_seq_id
_atom_site_occ_Fourier_param_cos
_atom_site_occ_Fourier_param_sin
 ? ? ? ?

loop_
_jana_atom_site_occ_Legendre_atom_site_label
_jana_atom_site_occ_Legendre_param_order
_jana_atom_site_occ_Legendre_param_coeff
 ? ? ?

loop_
_jana_atom_site_occ_crenel_ortho_atom_site_label
_jana_atom_site_occ_crenel_ortho_param_order
_jana_atom_site_occ_crenel_ortho_id
_jana_atom_site_occ_crenel_ortho_param_coeff
 ? ? ? ?

loop_
 _atom_site_occ_special_func_atom_site_label
 _atom_site_occ_special_func_crenel_c
 _atom_site_occ_special_func_crenel_w
 La1  0  0.125
 La2  0.107714(4)  0.0417
 La3 -0.102439(6)  0.0417
 Ti11  0  0.0417
 Fe11  0  0.0417
 Ti12  0.0417  0.0417
 Fe12  0.0417  0.0417
 Ti13  0.0833  0.0417
 Fe13  0.0833  0.0417
 Ti21  0  0.0417
 Fe21  0  0.0417
 Ti22  0.0417  0.0417
 Fe22  0.0417  0.0417
 Ti23  0.0833  0.0417
 Fe23  0.0833  0.0417
 O1  0  0.2083
 O2  0  0.25
 O3  0  0.25

loop_
 _atom_site_displace_Fourier_atom_site_label
 _atom_site_displace_Fourier_axis
 _atom_site_displace_Fourier_wave_vector_seq_id
 _atom_site_displace_Fourier_param_cos
 _atom_site_displace_Fourier_param_sin
 Ti11  x  1     0               -0.0056(4)
 Ti11  y  1     0                0.1286(3)
 Ti11  z  1     0               -0.0799(3)
 Ti11  x  2     0                0
 Ti11  y  2     0                0
 Ti11  z  2     0                0
 Ti11  x  3     0                0
 Ti11  y  3     0                0
 Ti11  z  3     0                0
 Ti11  x  4     0                0
 Ti11  y  4     0                0
 Ti11  z  4     0                0
 Ti11  x  5     0                0
 Ti11  y  5     0                0
 Ti11  z  5     0                0
 Ti11  x  6     0                0.0009(2)
 Ti11  y  6     0                0.02390(17)
 Ti11  z  6     0                0.02896(15)
 Fe11  x  1     0               -0.0056(4)
 Fe11  y  1     0                0.1286(3)
 Fe11  z  1     0               -0.0799(3)
 Fe11  x  2     0                0
 Fe11  y  2     0                0
 Fe11  z  2     0                0
 Fe11  x  3     0                0
 Fe11  y  3     0                0
 Fe11  z  3     0                0
 Fe11  x  4     0                0
 Fe11  y  4     0                0
 Fe11  z  4     0                0
 Fe11  x  5     0                0
 Fe11  y  5     0                0
 Fe11  z  5     0                0
 Fe11  x  6     0                0.0009(2)
 Fe11  y  6     0                0.02390(17)
 Fe11  z  6     0                0.02896(15)
 Ti12  x  1     0               -0.0056(4)
 Ti12  y  1     0                0.1286(3)
 Ti12  z  1     0               -0.0799(3)
 Ti12  x  2     0                0
 Ti12  y  2     0                0
 Ti12  z  2     0                0
 Ti12  x  3     0                0
 Ti12  y  3     0                0
 Ti12  z  3     0                0
 Ti12  x  4     0                0
 Ti12  y  4     0                0
 Ti12  z  4     0                0
 Ti12  x  5     0                0
 Ti12  y  5     0                0
 Ti12  z  5     0                0
 Ti12  x  6     0                0.0009(2)
 Ti12  y  6     0                0.02390(17)
 Ti12  z  6     0                0.02896(15)
 Fe12  x  1     0               -0.0056(4)
 Fe12  y  1     0                0.1286(3)
 Fe12  z  1     0               -0.0799(3)
 Fe12  x  2     0                0
 Fe12  y  2     0                0
 Fe12  z  2     0                0
 Fe12  x  3     0                0
 Fe12  y  3     0                0
 Fe12  z  3     0                0
 Fe12  x  4     0                0
 Fe12  y  4     0                0
 Fe12  z  4     0                0
 Fe12  x  5     0                0
 Fe12  y  5     0                0
 Fe12  z  5     0                0
 Fe12  x  6     0                0.0009(2)
 Fe12  y  6     0                0.02390(17)
 Fe12  z  6     0                0.02896(15)
 Ti13  x  1     0               -0.0056(4)
 Ti13  y  1     0                0.1286(3)
 Ti13  z  1     0               -0.0799(3)
 Ti13  x  2     0                0
 Ti13  y  2     0                0
 Ti13  z  2     0                0
 Ti13  x  3     0                0
 Ti13  y  3     0                0
 Ti13  z  3     0                0
 Ti13  x  4     0                0
 Ti13  y  4     0                0
 Ti13  z  4     0                0
 Ti13  x  5     0                0
 Ti13  y  5     0                0
 Ti13  z  5     0                0
 Ti13  x  6     0                0.0009(2)
 Ti13  y  6     0                0.02390(17)
 Ti13  z  6     0                0.02896(15)
 Fe13  x  1     0               -0.0056(4)
 Fe13  y  1     0                0.1286(3)
 Fe13  z  1     0               -0.0799(3)
 Fe13  x  2     0                0
 Fe13  y  2     0                0
 Fe13  z  2     0                0
 Fe13  x  3     0                0
 Fe13  y  3     0                0
 Fe13  z  3     0                0
 Fe13  x  4     0                0
 Fe13  y  4     0                0
 Fe13  z  4     0                0
 Fe13  x  5     0                0
 Fe13  y  5     0                0
 Fe13  z  5     0                0
 Fe13  x  6     0                0.0009(2)
 Fe13  y  6     0                0.02390(17)
 Fe13  z  6     0                0.02896(15)
 Ti21  x  1     0                0.0013(4)
 Ti21  y  1     0                0.1441(3)
 Ti21  z  1     0               -0.0872(3)
 Ti21  x  2     0                0
 Ti21  y  2     0                0
 Ti21  z  2     0                0
 Ti21  x  3     0                0
 Ti21  y  3     0                0
 Ti21  z  3     0                0
 Ti21  x  4     0                0
 Ti21  y  4     0                0
 Ti21  z  4     0                0
 Ti21  x  5     0                0
 Ti21  y  5     0                0
 Ti21  z  5     0                0
 Ti21  x  6     0               -0.0028(2)
 Ti21  y  6     0                0.02307(18)
 Ti21  z  6     0                0.02953(15)
 Fe21  x  1     0                0.0013(4)
 Fe21  y  1     0                0.1441(3)
 Fe21  z  1     0               -0.0872(3)
 Fe21  x  2     0                0
 Fe21  y  2     0                0
 Fe21  z  2     0                0
 Fe21  x  3     0                0
 Fe21  y  3     0                0
 Fe21  z  3     0                0
 Fe21  x  4     0                0
 Fe21  y  4     0                0
 Fe21  z  4     0                0
 Fe21  x  5     0                0
 Fe21  y  5     0                0
 Fe21  z  5     0                0
 Fe21  x  6     0               -0.0028(2)
 Fe21  y  6     0                0.02307(18)
 Fe21  z  6     0                0.02953(15)
 Ti22  x  1     0                0.0013(4)
 Ti22  y  1     0                0.1441(3)
 Ti22  z  1     0               -0.0872(3)
 Ti22  x  2     0                0
 Ti22  y  2     0                0
 Ti22  z  2     0                0
 Ti22  x  3     0                0
 Ti22  y  3     0                0
 Ti22  z  3     0                0
 Ti22  x  4     0                0
 Ti22  y  4     0                0
 Ti22  z  4     0                0
 Ti22  x  5     0                0
 Ti22  y  5     0                0
 Ti22  z  5     0                0
 Ti22  x  6     0               -0.0028(2)
 Ti22  y  6     0                0.02307(18)
 Ti22  z  6     0                0.02953(15)
 Fe22  x  1     0                0.0013(4)
 Fe22  y  1     0                0.1441(3)
 Fe22  z  1     0               -0.0872(3)
 Fe22  x  2     0                0
 Fe22  y  2     0                0
 Fe22  z  2     0                0
 Fe22  x  3     0                0
 Fe22  y  3     0                0
 Fe22  z  3     0                0
 Fe22  x  4     0                0
 Fe22  y  4     0                0
 Fe22  z  4     0                0
 Fe22  x  5     0                0
 Fe22  y  5     0                0
 Fe22  z  5     0                0
 Fe22  x  6     0               -0.0028(2)
 Fe22  y  6     0                0.02307(18)
 Fe22  z  6     0                0.02953(15)
 Ti23  x  1     0                0.0013(4)
 Ti23  y  1     0                0.1441(3)
 Ti23  z  1     0               -0.0872(3)
 Ti23  x  2     0                0
 Ti23  y  2     0                0
 Ti23  z  2     0                0
 Ti23  x  3     0                0
 Ti23  y  3     0                0
 Ti23  z  3     0                0
 Ti23  x  4     0                0
 Ti23  y  4     0                0
 Ti23  z  4     0                0
 Ti23  x  5     0                0
 Ti23  y  5     0                0
 Ti23  z  5     0                0
 Ti23  x  6     0               -0.0028(2)
 Ti23  y  6     0                0.02307(18)
 Ti23  z  6     0                0.02953(15)
 Fe23  x  1     0                0.0013(4)
 Fe23  y  1     0                0.1441(3)
 Fe23  z  1     0               -0.0872(3)
 Fe23  x  2     0                0
 Fe23  y  2     0                0
 Fe23  z  2     0                0
 Fe23  x  3     0                0
 Fe23  y  3     0                0
 Fe23  z  3     0                0
 Fe23  x  4     0                0
 Fe23  y  4     0                0
 Fe23  z  4     0                0
 Fe23  x  5     0                0
 Fe23  y  5     0                0
 Fe23  z  5     0                0
 Fe23  x  6     0               -0.0028(2)
 Fe23  y  6     0                0.02307(18)
 Fe23  z  6     0                0.02953(15)

loop_
_jana_atom_site_displace_Legendre_atom_site_label
_jana_atom_site_displace_Legendre_axis
_jana_atom_site_displace_Legendre_param_order
_jana_atom_site_displace_Legendre_param_coeff
 ? ? ? ?

loop_
 _jana_atom_site_displace_crenel_ortho_atom_site_label
 _jana_atom_site_displace_crenel_ortho_axis
 _jana_atom_site_displace_crenel_ortho_id
 _jana_atom_site_displace_crenel_ortho_param_order
 _jana_atom_site_displace_crenel_ortho_param_coeff
 La1   x  1  1 -0.00046(6)
 La1   y  1  1  0.03277(3)
 La1   z  1  1  0.00211(3)
 La1   x  1  2  0.00023(3)
 La1   y  1  2  0.00115(4)
 La1   z  1  2 -0.00108(4)
 O1    x  2  1  0.0006(3)
 O1    y  2  1  0.0105(4)
 O1    z  2  1 -0.0136(3)
 O1    x  2  2 -0.0002(3)
 O1    y  2  2  0.0140(4)
 O1    z  2  2  0.0022(4)
 O1    x  2  3 -0.0005(4)
 O1    y  2  3  0.0034(4)
 O1    z  2  3  0.0075(4)
 O1    x  2  4  0.0004(4)
 O1    y  2  4 -0.0148(5)
 O1    z  2  4  0.0016(5)
 O2    x  3  1 -0.0005(3)
 O2    y  3  1  0.0343(3)
 O2    z  3  1  0.0035(3)
 O2    x  3  2 -0.0090(3)
 O2    y  3  2 -0.0057(3)
 O2    z  3  2  0.0155(3)
 O2    x  3  3  0.0109(3)
 O2    y  3  3 -0.0062(4)
 O2    z  3  3 -0.0082(4)
 O2    x  3  4  0.0049(3)
 O2    y  3  4  0.0078(4)
 O2    z  3  4 -0.0026(4)
 O2    x  3  5 -0.0118(4)
 O2    y  3  5  0.0054(5)
 O2    z  3  5  0.0042(5)
 O2    x  3  6  0
 O2    y  3  6  0
 O2    z  3  6  0
 O3    x  4  1  0.0002(3)
 O3    y  4  1  0.0353(3)
 O3    z  4  1  0.0012(3)
 O3    x  4  2  0.0057(3)
 O3    y  4  2  0.0009(3)
 O3    z  4  2  0.0178(3)
 O3    x  4  3 -0.0118(3)
 O3    y  4  3 -0.0060(4)
 O3    z  4  3 -0.0063(4)
 O3    x  4  4 -0.0023(3)
 O3    y  4  4  0.0057(4)
 O3    z  4  4 -0.0018(4)
 O3    x  4  5  0.0122(4)
 O3    y  4  5  0.0060(6)
 O3    z  4  5  0.0023(5)
 O3    x  4  6  0
 O3    y  4  6  0
 O3    z  4  6  0

loop_
 _jana_atom_site_U_crenel_ortho_atom_site_label
 _jana_atom_site_U_crenel_ortho_tens_elem
 _jana_atom_site_U_crenel_ortho_id
 _jana_atom_site_U_crenel_ortho_param_order
 _jana_atom_site_U_crenel_ortho_param_coeff
 La1   U11  1  1  0.00025(5)
 La1   U22  1  1  0.00117(7)
 La1   U33  1  1  0.00063(6)
 La1   U12  1  1 -0.00025(6)
 La1   U13  1  1  0.00014(5)
 La1   U23  1  1 -0.00038(5)
 La1   U11  1  2  0.00110(6)
 La1   U22  1  2 -0.00054(8)
 La1   U33  1  2 -0.00038(6)
 La1   U12  1  2 -0.00108(11)
 La1   U13  1  2  0.00014(12)
 La1   U23  1  2  0.00060(5)


#=======================================================================

# 10. MOLECULAR GEOMETRY


loop_
 _geom_bond_atom_site_label_1
 _geom_bond_atom_site_label_2
 _geom_bond_site_ssg_symmetry_1
 _geom_bond_site_ssg_symmetry_2
 _geom_bond_distance_av
 _geom_bond_distance_min
 _geom_bond_distance_max
 _geom_bond_publ_flag
  La1 La1 . 7_4555 3.9219(13) 3.9219(13) 3.9219(13) ?
  La1 La1 . 7_5555 3.9245(13) 3.9245(13) 3.9245(13) ?
  La1 Ti11 . 1_5545 3.4028(8) 3.4028(8) 3.4028(8) ?
  La1 Ti11 . . 3.3919(8) 3.3919(8) 3.3919(8) ?
  La1 Fe11 . 1_5545 3.4028(8) 3.4028(8) 3.4028(8) ?
  La1 Fe11 . . 3.3919(8) 3.3919(8) 3.3919(8) ?
  La1 Ti21 . 1_4545 3.4021(8) 3.4021(8) 3.4021(8) ?
  La1 Ti21 . 1_4555 3.3911(8) 3.3911(8) 3.3911(8) ?
  La1 Fe21 . 1_4545 3.4021(8) 3.4021(8) 3.4021(8) ?
  La1 Fe21 . 1_4555 3.3911(8) 3.3911(8) 3.3911(8) ?
  La1 O1 . 1_5545 2.47(2) 2.47(2) 2.47(2) ?
  La1 O1 . . 3.08(2) 3.08(2) 3.08(2) ?
  La1 O1 . 7_4555 5.00(3) 5.00(3) 5.00(3) ?
  La1 O1 . 7_4565 4.62(3) 4.62(3) 4.62(3) ?
  La1 O1 . 7_5555 5.00(3) 5.00(3) 5.00(3) ?
  La1 O1 . 7_5565 4.62(3) 4.62(3) 4.62(3) ?
  La1 O2 . 1_5455 4.65(3) 4.65(3) 4.65(3) ?
  La1 O2 . 1_5545 4.82(3) 4.82(3) 4.82(3) ?
  La1 O2 . . 2.45(3) 2.45(3) 2.45(3) ?
  La1 O2 . 7_5555 2.77(3) 2.77(3) 2.77(3) ?
  La1 O2 . 7_5565 4.98(3) 4.98(3) 4.98(3) ?
  La1 O3 . 1_4455 4.67(3) 4.67(3) 4.67(3) ?
  La1 O3 . 1_4545 4.83(3) 4.83(3) 4.83(3) ?
  La1 O3 . 1_4555 2.43(3) 2.43(3) 2.43(3) ?
  La1 O3 . 7_5555 2.75(3) 2.75(3) 2.75(3) ?
  La1 O3 . 7_5565 4.98(3) 4.98(3) 4.98(3) ?
  La1 La11 . 8_4445 3.8947(12) 3.8947(12) 3.8947(12) ?
  La1 La11 . 8_4455 3.9173(12) 3.9173(12) 3.9173(12) ?
  La1 La11 . 8_4545 3.8270(13) 3.8270(13) 3.8270(13) ?
  La1 La11 . 8_4555 3.8342(13) 3.8342(13) 3.8342(13) ?
  La1 Ti121 . 6_5545 3.444(4) 3.444(4) 3.444(4) ?
  La1 Ti121 . 8_4555 3.576(4) 3.576(4) 3.576(4) ?
  La1 Fe121 . 6_5545 3.444(4) 3.444(4) 3.444(4) ?
  La1 Fe121 . 8_4555 3.576(4) 3.576(4) 3.576(4) ?
  La1 Ti221 . 6_5545 3.444(4) 3.444(4) 3.444(4) ?
  La1 Ti221 . 8_3555 3.602(4) 3.602(4) 3.602(4) ?
  La1 Fe221 . 6_5545 3.444(4) 3.444(4) 3.444(4) ?
  La1 Fe221 . 8_3555 3.602(4) 3.602(4) 3.602(4) ?
  La1 O11 . 6_4545 4.91(4) 4.91(4) 4.91(4) ?
  La1 O11 . 6_4645 4.71(3) 4.71(3) 4.71(3) ?
  La1 O11 . 6_5545 4.91(4) 4.91(4) 4.91(4) ?
  La1 O11 . 6_5645 4.68(3) 4.68(3) 4.68(3) ?
  La1 O11 . 8_4455 2.42(3) 2.42(3) 2.42(3) ?
  La1 O11 . 8_4555 3.13(3) 3.13(3) 3.13(3) ?
  La1 O21 . 6_4545 3.75(9) 3.75(9) 3.75(9) ?
  La1 O21 . 6_4645 4.12(8) 4.12(8) 4.12(8) ?
  La1 O21 . 8_4455 2.39(8) 2.39(8) 2.39(8) ?
  La1 O21 . 8_4555 4.16(9) 4.16(9) 4.16(9) ?
  La1 O31 . 6_6545 4.09(9) 4.09(9) 4.09(9) ?
  La1 O31 . 6_6645 4.19(8) 4.19(8) 4.19(8) ?
  La1 O31 . 8_3445 4.93(8) 4.93(8) 4.93(8) ?
  La1 O31 . 8_3455 2.30(8) 2.30(8) 2.30(8) ?
  La1 O31 . 8_3555 4.33(9) 4.33(9) 4.33(9) ?
  La2 La2 . 2_5645 4.0345(5) 4.0345(5) 4.0345(5) ?
  La2 La2 . 2_5655 4.0345(5) 4.0345(5) 4.0345(5) ?
  La2 La3 . 7_4555 3.9086(8) 3.9086(8) 3.9086(8) ?
  La2 La3 . 7_5555 3.9711(8) 3.9711(8) 3.9711(8) ?
  La2 La3 . 8_4645 4.0768(5) 4.0768(5) 4.0768(5) ?
  La2 La3 . 8_4655 4.3680(5) 4.3680(5) 4.3680(5) ?
  La2 Ti13 . 1_5545 3.3867(7) 3.3867(7) 3.3867(7) ?
  La2 Ti13 . . 3.8076(6) 3.8076(6) 3.8076(6) ?
  La2 Ti13 . 2_5645 3.3685(5) 3.3685(5) 3.3685(5) ?
  La2 Fe13 . 1_5545 3.3867(7) 3.3867(7) 3.3867(7) ?
  La2 Fe13 . . 3.8076(6) 3.8076(6) 3.8076(6) ?
  La2 Fe13 . 2_5645 3.3685(5) 3.3685(5) 3.3685(5) ?
  La2 Ti23 . 1_4545 3.3873(7) 3.3873(7) 3.3873(7) ?
  La2 Ti23 . 1_4555 3.7785(6) 3.7785(6) 3.7785(6) ?
  La2 Fe23 . 1_4545 3.3873(7) 3.3873(7) 3.3873(7) ?
  La2 Fe23 . 1_4555 3.7785(6) 3.7785(6) 3.7785(6) ?
  La2 O1 . 1_5545 2.56(2) 2.56(2) 2.56(2) ?
  La2 O1 . . 3.74(2) 3.74(2) 3.74(2) ?
  La2 O1 . 2_5645 4.17(2) 4.17(2) 4.17(2) ?
  La2 O1 . 7_4555 4.94(2) 4.94(2) 4.94(2) ?
  La2 O1 . 7_5555 4.97(2) 4.97(2) 4.97(2) ?
  La2 O1 . 8_4655 4.04(2) 4.04(2) 4.04(2) ?
  La2 O2 . 1_5545 4.37(3) 4.37(3) 4.37(3) ?
  La2 O2 . . 2.44(3) 2.44(3) 2.44(3) ?
  La2 O2 . 2_5645 2.55(3) 2.55(3) 2.55(3) ?
  La2 O2 . 2_5655 4.91(3) 4.91(3) 4.91(3) ?
  La2 O2 . 7_5555 3.47(3) 3.47(3) 3.47(3) ?
  La2 O3 . 1_4545 4.42(3) 4.42(3) 4.42(3) ?
  La2 O3 . 1_4555 2.39(3) 2.39(3) 2.39(3) ?
  La2 O3 . 2_5645 4.85(3) 4.85(3) 4.85(3) ?
  La2 O3 . 2_6645 4.65(3) 4.65(3) 4.65(3) ?
  La2 O3 . 7_5555 3.43(3) 3.43(3) 3.43(3) ?
  La2 La11 . 8_4445 4.7691(11) 4.7691(11) 4.7691(11) ?
  La2 Ti121 . 8_4455 4.340(3) 4.340(3) 4.340(3) ?
  La2 Fe121 . 8_4455 4.340(3) 4.340(3) 4.340(3) ?
  La2 Ti221 . 8_3455 4.330(3) 4.330(3) 4.330(3) ?
  La2 Fe221 . 8_3455 4.330(3) 4.330(3) 4.330(3) ?
  La2 O11 . 8_4455 3.74(3) 3.74(3) 3.74(3) ?
  La2 O21 . 5_4545 4.23(3) 4.23(3) 4.23(3) ?
  La2 O21 . 5_4555 3.44(3) 3.44(3) 3.44(3) ?
  La2 O21 . 6_4645 4.03(3) 4.03(3) 4.03(3) ?
  La2 O21 . 6_5645 3.92(3) 3.92(3) 3.92(3) ?
  La2 O21 . 8_4455 4.11(9) 4.11(9) 4.11(9) ?
  La2 O31 . 5_3545 4.51(2) 4.51(2) 4.51(2) ?
  La2 O31 . 5_3555 3.54(3) 3.54(3) 3.54(3) ?
  La2 O31 . 6_5645 3.80(3) 3.80(3) 3.80(3) ?
  La2 O31 . 6_6645 4.17(3) 4.17(3) 4.17(3) ?
  La2 O31 . 8_3455 3.94(9) 3.94(9) 3.94(9) ?
  La3 La3 . 6_4445 4.3967(5) 4.3967(5) 4.3967(5) ?
  La3 La3 . 6_4455 4.3967(5) 4.3967(5) 4.3967(5) ?
  La3 Ti13 . 7_5555 3.5699(7) 3.5699(7) 3.5699(7) ?
  La3 Ti13 . 7_5565 3.4893(7) 3.4893(7) 3.4893(7) ?
  La3 Fe13 . 7_5555 3.5699(7) 3.5699(7) 3.5699(7) ?
  La3 Fe13 . 7_5565 3.4893(7) 3.4893(7) 3.4893(7) ?
  La3 Ti23 . 7_5555 3.5096(7) 3.5096(7) 3.5096(7) ?
  La3 Ti23 . 7_5565 3.4602(7) 3.4602(7) 3.4602(7) ?
  La3 Ti23 . 4_4455 3.6479(5) 3.6479(5) 3.6479(5) ?
  La3 Fe23 . 7_5555 3.5096(7) 3.5096(7) 3.5096(7) ?
  La3 Fe23 . 7_5565 3.4602(7) 3.4602(7) 3.4602(7) ?
  La3 Fe23 . 4_4455 3.6479(5) 3.6479(5) 3.6479(5) ?
  La3 O1 . 1_5545 2.826(19) 2.826(19) 2.826(19) ?
  La3 O1 . . 3.102(19) 3.102(19) 3.102(19) ?
  La3 O1 . 6_4445 4.33(2) 4.33(2) 4.33(2) ?
  La3 O1 . 7_4565 4.68(2) 4.68(2) 4.68(2) ?
  La3 O1 . 7_5565 4.71(2) 4.71(2) 4.71(2) ?
  La3 O1 . 4_5455 4.44(2) 4.44(2) 4.44(2) ?
  La3 O2 . . 2.87(3) 2.87(3) 2.87(3) ?
  La3 O2 . 7_5555 2.51(3) 2.51(3) 2.51(3) ?
  La3 O2 . 7_5565 4.68(3) 4.68(3) 4.68(3) ?
  La3 O2 . 4_4455 4.98(3) 4.98(3) 4.98(3) ?
  La3 O2 . 4_5455 4.83(3) 4.83(3) 4.83(3) ?
  La3 O3 . 1_4555 2.80(3) 2.80(3) 2.80(3) ?
  La3 O3 . 7_5555 2.45(3) 2.45(3) 2.45(3) ?
  La3 O3 . 7_5565 4.72(3) 4.72(3) 4.72(3) ?
  La3 O3 . 4_4445 4.89(3) 4.89(3) 4.89(3) ?
  La3 O3 . 4_4455 3.08(3) 3.08(3) 3.08(3) ?
  La3 La11 . 8_4545 4.6952(9) 4.6952(9) 4.6952(9) ?
  La3 La11 . 8_4555 4.3897(10) 4.3897(10) 4.3897(10) ?
  La3 Ti121 . 6_5645 4.043(3) 4.043(3) 4.043(3) ?
  La3 Fe121 . 6_5645 4.043(3) 4.043(3) 4.043(3) ?
  La3 Ti221 . 6_5645 3.995(3) 3.995(3) 3.995(3) ?
  La3 Fe221 . 6_5645 3.995(3) 3.995(3) 3.995(3) ?
  La3 O11 . 8_4555 3.95(3) 3.95(3) 3.95(3) ?
  La3 O21 . 6_4645 3.50(9) 3.50(9) 3.50(9) ?
  La3 O21 . 3_5555 3.55(3) 3.55(3) 3.55(3) ?
  La3 O21 . 3_5565 4.60(3) 4.60(3) 4.60(3) ?
  La3 O21 . 8_4445 4.82(2) 4.82(2) 4.82(2) ?
  La3 O21 . 8_4455 1.03(2) 1.03(2) 1.03(2) ?
  La3 O21 . 8_4555 4.29(8) 4.29(8) 4.29(8) ?
  La3 O31 . 6_6645 3.50(9) 3.50(9) 3.50(9) ?
  La3 O31 . 3_6555 3.41(3) 3.41(3) 3.41(3) ?
  La3 O31 . 3_6565 4.68(2) 4.68(2) 4.68(2) ?
  La3 O31 . 8_3445 4.66(2) 4.66(2) 4.66(2) ?
  La3 O31 . 8_3455 1.09(2) 1.09(2) 1.09(2) ?
  La3 O31 . 8_3555 4.46(8) 4.46(8) 4.46(8) ?
  Ti11 Fe11 . . 0 0 0 ?
  Ti11 Ti21 . 1_4555 3.9197(4) 3.9197(4) 3.9197(4) ?
  Ti11 Ti21 . . 3.9197(4) 3.9197(4) 3.9197(4) ?
  Ti11 Fe21 . 1_4555 3.9197(4) 3.9197(4) 3.9197(4) ?
  Ti11 Fe21 . . 3.9197(4) 3.9197(4) 3.9197(4) ?
  Ti11 O1 . . 1.98(3) 1.98(3) 1.98(3) ?
  Ti11 O1 . 7_5565 1.98(3) 1.98(3) 1.98(3) ?
  Ti11 O2 . 1_5455 4.55(3) 4.55(3) 4.55(3) ?
  Ti11 O2 . . 1.97(3) 1.97(3) 1.97(3) ?
  Ti11 O2 . 1_5565 4.18(3) 4.18(3) 4.18(3) ?
  Ti11 O2 . 7_5555 4.18(3) 4.18(3) 4.18(3) ?
  Ti11 O2 . 7_5565 1.97(3) 1.97(3) 1.97(3) ?
  Ti11 O2 . 7_5665 4.55(3) 4.55(3) 4.55(3) ?
  Ti11 O3 . 1_4555 4.15(3) 4.15(3) 4.15(3) ?
  Ti11 O3 . . 4.61(3) 4.61(3) 4.61(3) ?
  Ti11 O3 . 7_5565 4.61(3) 4.61(3) 4.61(3) ?
  Ti11 O3 . 7_6565 4.15(3) 4.15(3) 4.15(3) ?
  Ti11 La11 . 6_5555 3.2209(18) 3.2209(18) 3.2209(18) ?
  Ti11 La11 . 6_5655 3.4402(14) 3.4402(14) 3.4402(14) ?
  Ti11 La11 . 8_4455 3.4402(14) 3.4402(14) 3.4402(14) ?
  Ti11 La11 . 8_4555 3.2209(18) 3.2209(18) 3.2209(18) ?
  Ti11 Ti121 . 6_5545 3.989(3) 3.989(3) 3.989(3) ?
  Ti11 Ti121 . 6_5555 4.053(3) 4.053(3) 4.053(3) ?
  Ti11 Ti121 . 8_4555 4.053(3) 4.053(3) 4.053(3) ?
  Ti11 Ti121 . 8_4565 3.989(3) 3.989(3) 3.989(3) ?
  Ti11 Fe121 . 6_5545 3.989(3) 3.989(3) 3.989(3) ?
  Ti11 Fe121 . 6_5555 4.053(3) 4.053(3) 4.053(3) ?
  Ti11 Fe121 . 8_4555 4.053(3) 4.053(3) 4.053(3) ?
  Ti11 Fe121 . 8_4565 3.989(3) 3.989(3) 3.989(3) ?
  Ti11 O11 . 6_5545 4.51(3) 4.51(3) 4.51(3) ?
  Ti11 O11 . 6_5555 4.61(3) 4.61(3) 4.61(3) ?
  Ti11 O11 . 6_5645 4.11(3) 4.11(3) 4.11(3) ?
  Ti11 O11 . 6_5655 4.31(3) 4.31(3) 4.31(3) ?
  Ti11 O11 . 8_4455 4.31(3) 4.31(3) 4.31(3) ?
  Ti11 O11 . 8_4465 4.11(3) 4.11(3) 4.11(3) ?
  Ti11 O11 . 8_4555 4.61(3) 4.61(3) 4.61(3) ?
  Ti11 O11 . 8_4565 4.51(3) 4.51(3) 4.51(3) ?
  Ti11 O21 . 6_5645 4.99(8) 4.99(8) 4.99(8) ?
  Ti11 O21 . 6_5655 3.89(8) 3.89(8) 3.89(8) ?
  Ti11 O21 . 8_4455 3.89(8) 3.89(8) 3.89(8) ?
  Ti11 O21 . 8_4465 4.99(8) 4.99(8) 4.99(8) ?
  Ti11 O31 . 6_6555 4.17(9) 4.17(9) 4.17(9) ?
  Ti11 O31 . 6_6645 4.60(8) 4.60(8) 4.60(8) ?
  Ti11 O31 . 6_6655 3.06(8) 3.06(8) 3.06(8) ?
  Ti11 O31 . 8_3455 3.06(8) 3.06(8) 3.06(8) ?
  Ti11 O31 . 8_3465 4.60(8) 4.60(8) 4.60(8) ?
  Ti11 O31 . 8_3555 4.17(9) 4.17(9) 4.17(9) ?
  Fe11 Ti21 . 1_4555 3.9197(4) 3.9197(4) 3.9197(4) ?
  Fe11 Ti21 . . 3.9197(4) 3.9197(4) 3.9197(4) ?
  Fe11 Fe21 . 1_4555 3.9197(4) 3.9197(4) 3.9197(4) ?
  Fe11 Fe21 . . 3.9197(4) 3.9197(4) 3.9197(4) ?
  Fe11 O1 . . 1.98(3) 1.98(3) 1.98(3) ?
  Fe11 O1 . 7_5565 1.98(3) 1.98(3) 1.98(3) ?
  Fe11 O2 . 1_5455 4.55(3) 4.55(3) 4.55(3) ?
  Fe11 O2 . . 1.97(3) 1.97(3) 1.97(3) ?
  Fe11 O2 . 1_5565 4.18(3) 4.18(3) 4.18(3) ?
  Fe11 O2 . 7_5555 4.18(3) 4.18(3) 4.18(3) ?
  Fe11 O2 . 7_5565 1.97(3) 1.97(3) 1.97(3) ?
  Fe11 O2 . 7_5665 4.55(3) 4.55(3) 4.55(3) ?
  Fe11 O3 . 1_4555 4.15(3) 4.15(3) 4.15(3) ?
  Fe11 O3 . . 4.61(3) 4.61(3) 4.61(3) ?
  Fe11 O3 . 7_5565 4.61(3) 4.61(3) 4.61(3) ?
  Fe11 O3 . 7_6565 4.15(3) 4.15(3) 4.15(3) ?
  Fe11 La11 . 6_5555 3.2209(18) 3.2209(18) 3.2209(18) ?
  Fe11 La11 . 6_5655 3.4402(14) 3.4402(14) 3.4402(14) ?
  Fe11 La11 . 8_4455 3.4402(14) 3.4402(14) 3.4402(14) ?
  Fe11 La11 . 8_4555 3.2209(18) 3.2209(18) 3.2209(18) ?
  Fe11 Ti121 . 6_5545 3.989(3) 3.989(3) 3.989(3) ?
  Fe11 Ti121 . 6_5555 4.053(3) 4.053(3) 4.053(3) ?
  Fe11 Ti121 . 8_4555 4.053(3) 4.053(3) 4.053(3) ?
  Fe11 Ti121 . 8_4565 3.989(3) 3.989(3) 3.989(3) ?
  Fe11 Fe121 . 6_5545 3.989(3) 3.989(3) 3.989(3) ?
  Fe11 Fe121 . 6_5555 4.053(3) 4.053(3) 4.053(3) ?
  Fe11 Fe121 . 8_4555 4.053(3) 4.053(3) 4.053(3) ?
  Fe11 Fe121 . 8_4565 3.989(3) 3.989(3) 3.989(3) ?
  Fe11 O11 . 6_5545 4.51(3) 4.51(3) 4.51(3) ?
  Fe11 O11 . 6_5555 4.61(3) 4.61(3) 4.61(3) ?
  Fe11 O11 . 6_5645 4.11(3) 4.11(3) 4.11(3) ?
  Fe11 O11 . 6_5655 4.31(3) 4.31(3) 4.31(3) ?
  Fe11 O11 . 8_4455 4.31(3) 4.31(3) 4.31(3) ?
  Fe11 O11 . 8_4465 4.11(3) 4.11(3) 4.11(3) ?
  Fe11 O11 . 8_4555 4.61(3) 4.61(3) 4.61(3) ?
  Fe11 O11 . 8_4565 4.51(3) 4.51(3) 4.51(3) ?
  Fe11 O21 . 6_5645 4.99(8) 4.99(8) 4.99(8) ?
  Fe11 O21 . 6_5655 3.89(8) 3.89(8) 3.89(8) ?
  Fe11 O21 . 8_4455 3.89(8) 3.89(8) 3.89(8) ?
  Fe11 O21 . 8_4465 4.99(8) 4.99(8) 4.99(8) ?
  Fe11 O31 . 6_6555 4.17(9) 4.17(9) 4.17(9) ?
  Fe11 O31 . 6_6645 4.60(8) 4.60(8) 4.60(8) ?
  Fe11 O31 . 6_6655 3.06(8) 3.06(8) 3.06(8) ?
  Fe11 O31 . 8_3455 3.06(8) 3.06(8) 3.06(8) ?
  Fe11 O31 . 8_3465 4.60(8) 4.60(8) 4.60(8) ?
  Fe11 O31 . 8_3555 4.17(9) 4.17(9) 4.17(9) ?
  Ti13 Fe13 . . 0 0 0 ?
  Ti13 Ti23 . 1_4555 3.8927(12) 3.8927(12) 3.8927(12) ?
  Ti13 Ti23 . . 3.9472(12) 3.9472(12) 3.9472(12) ?
  Ti13 Fe23 . 1_4555 3.8927(12) 3.8927(12) 3.8927(12) ?
  Ti13 Fe23 . . 3.9472(12) 3.9472(12) 3.9472(12) ?
  Ti13 O1 . . 1.99(2) 1.99(2) 1.99(2) ?
  Ti13 O1 . 7_5565 2.01(2) 2.01(2) 2.01(2) ?
  Ti13 O2 . 1_5455 4.57(3) 4.57(3) 4.57(3) ?
  Ti13 O2 . . 1.83(3) 1.83(3) 1.83(3) ?
  Ti13 O2 . 1_5565 4.23(3) 4.23(3) 4.23(3) ?
  Ti13 O2 . 2_5655 4.12(3) 4.12(3) 4.12(3) ?
  Ti13 O2 . 7_5555 4.01(3) 4.01(3) 4.01(3) ?
  Ti13 O2 . 7_5565 2.22(3) 2.22(3) 2.22(3) ?
  Ti13 O3 . 1_4555 4.18(3) 4.18(3) 4.18(3) ?
  Ti13 O3 . . 4.46(3) 4.46(3) 4.46(3) ?
  Ti13 O3 . 2_6655 4.21(3) 4.21(3) 4.21(3) ?
  Ti13 O3 . 7_5565 4.78(3) 4.78(3) 4.78(3) ?
  Ti13 O3 . 7_6565 4.21(3) 4.21(3) 4.21(3) ?
  Ti13 La11 . 6_5555 3.3725(15) 3.3725(15) 3.3725(15) ?
  Ti13 La11 . 8_4455 3.5769(17) 3.5769(17) 3.5769(17) ?
  Ti13 Ti121 . 8_4455 3.711(3) 3.711(3) 3.711(3) ?
  Ti13 Ti121 . 8_4465 3.964(3) 3.964(3) 3.964(3) ?
  Ti13 Fe121 . 8_4455 3.711(3) 3.711(3) 3.711(3) ?
  Ti13 Fe121 . 8_4465 3.964(3) 3.964(3) 3.964(3) ?
  Ti13 O11 . 6_5545 4.36(3) 4.36(3) 4.36(3) ?
  Ti13 O11 . 6_5555 4.81(3) 4.81(3) 4.81(3) ?
  Ti13 O11 . 8_4455 4.13(3) 4.13(3) 4.13(3) ?
  Ti13 O11 . 8_4465 4.31(3) 4.31(3) 4.31(3) ?
  Ti13 O21 . 5_4555 4.95(3) 4.95(3) 4.95(3) ?
  Ti13 O21 . 6_5555 4.74(8) 4.74(8) 4.74(8) ?
  Ti13 O21 . 6_5645 4.36(3) 4.36(3) 4.36(3) ?
  Ti13 O21 . 6_5655 3.14(3) 3.14(3) 3.14(3) ?
  Ti13 O21 . 8_5455 4.78(9) 4.78(9) 4.78(9) ?
  Ti13 O31 . 5_4555 4.99(3) 4.99(3) 4.99(3) ?
  Ti13 O31 . 6_6555 4.27(8) 4.27(8) 4.27(8) ?
  Ti13 O31 . 6_6645 4.56(2) 4.56(2) 4.56(2) ?
  Ti13 O31 . 6_6655 3.15(3) 3.15(3) 3.15(3) ?
  Ti13 O31 . 8_3455 2.63(9) 2.63(9) 2.63(9) ?
  Ti13 O31 . 8_3465 4.21(9) 4.21(9) 4.21(9) ?
  Fe13 Ti23 . 1_4555 3.8927(12) 3.8927(12) 3.8927(12) ?
  Fe13 Ti23 . . 3.9472(12) 3.9472(12) 3.9472(12) ?
  Fe13 Fe23 . 1_4555 3.8927(12) 3.8927(12) 3.8927(12) ?
  Fe13 Fe23 . . 3.9472(12) 3.9472(12) 3.9472(12) ?
  Fe13 O1 . . 1.99(2) 1.99(2) 1.99(2) ?
  Fe13 O1 . 7_5565 2.01(2) 2.01(2) 2.01(2) ?
  Fe13 O2 . 1_5455 4.57(3) 4.57(3) 4.57(3) ?
  Fe13 O2 . . 1.83(3) 1.83(3) 1.83(3) ?
  Fe13 O2 . 1_5565 4.23(3) 4.23(3) 4.23(3) ?
  Fe13 O2 . 2_5655 4.12(3) 4.12(3) 4.12(3) ?
  Fe13 O2 . 7_5555 4.01(3) 4.01(3) 4.01(3) ?
  Fe13 O2 . 7_5565 2.22(3) 2.22(3) 2.22(3) ?
  Fe13 O3 . 1_4555 4.18(3) 4.18(3) 4.18(3) ?
  Fe13 O3 . . 4.46(3) 4.46(3) 4.46(3) ?
  Fe13 O3 . 2_6655 4.21(3) 4.21(3) 4.21(3) ?
  Fe13 O3 . 7_5565 4.78(3) 4.78(3) 4.78(3) ?
  Fe13 O3 . 7_6565 4.21(3) 4.21(3) 4.21(3) ?
  Fe13 La11 . 6_5555 3.3725(15) 3.3725(15) 3.3725(15) ?
  Fe13 La11 . 8_4455 3.5769(17) 3.5769(17) 3.5769(17) ?
  Fe13 Ti121 . 8_4455 3.711(3) 3.711(3) 3.711(3) ?
  Fe13 Ti121 . 8_4465 3.964(3) 3.964(3) 3.964(3) ?
  Fe13 Fe121 . 8_4455 3.711(3) 3.711(3) 3.711(3) ?
  Fe13 Fe121 . 8_4465 3.964(3) 3.964(3) 3.964(3) ?
  Fe13 O11 . 6_5545 4.36(3) 4.36(3) 4.36(3) ?
  Fe13 O11 . 6_5555 4.81(3) 4.81(3) 4.81(3) ?
  Fe13 O11 . 8_4455 4.13(3) 4.13(3) 4.13(3) ?
  Fe13 O11 . 8_4465 4.31(3) 4.31(3) 4.31(3) ?
  Fe13 O21 . 5_4555 4.95(3) 4.95(3) 4.95(3) ?
  Fe13 O21 . 6_5555 4.74(8) 4.74(8) 4.74(8) ?
  Fe13 O21 . 6_5645 4.36(3) 4.36(3) 4.36(3) ?
  Fe13 O21 . 6_5655 3.14(3) 3.14(3) 3.14(3) ?
  Fe13 O21 . 8_5455 4.78(9) 4.78(9) 4.78(9) ?
  Fe13 O31 . 5_4555 4.99(3) 4.99(3) 4.99(3) ?
  Fe13 O31 . 6_6555 4.27(8) 4.27(8) 4.27(8) ?
  Fe13 O31 . 6_6645 4.56(2) 4.56(2) 4.56(2) ?
  Fe13 O31 . 6_6655 3.15(3) 3.15(3) 3.15(3) ?
  Fe13 O31 . 8_3455 2.63(9) 2.63(9) 2.63(9) ?
  Fe13 O31 . 8_3465 4.21(9) 4.21(9) 4.21(9) ?
  Ti21 Fe21 . . 0 0 0 ?
  Ti21 O1 . 1_6555 1.99(3) 1.99(3) 1.99(3) ?
  Ti21 O1 . 7_5565 1.99(3) 1.99(3) 1.99(3) ?
  Ti21 O2 . . 4.61(3) 4.61(3) 4.61(3) ?
  Ti21 O2 . 1_6555 4.14(3) 4.14(3) 4.14(3) ?
  Ti21 O2 . 7_5565 4.14(3) 4.14(3) 4.14(3) ?
  Ti21 O2 . 7_6565 4.61(3) 4.61(3) 4.61(3) ?
  Ti21 O3 . 1_5455 4.60(3) 4.60(3) 4.60(3) ?
  Ti21 O3 . . 1.97(3) 1.97(3) 1.97(3) ?
  Ti21 O3 . 1_5565 4.16(3) 4.16(3) 4.16(3) ?
  Ti21 O3 . 7_6555 4.16(3) 4.16(3) 4.16(3) ?
  Ti21 O3 . 7_6565 1.97(3) 1.97(3) 1.97(3) ?
  Ti21 O3 . 7_6665 4.60(3) 4.60(3) 4.60(3) ?
  Ti21 La11 . 6_5555 3.2270(18) 3.2270(18) 3.2270(18) ?
  Ti21 La11 . 6_5655 3.4494(14) 3.4494(14) 3.4494(14) ?
  Ti21 La11 . 8_5455 3.4494(14) 3.4494(14) 3.4494(14) ?
  Ti21 La11 . 8_5555 3.2270(18) 3.2270(18) 3.2270(18) ?
  Ti21 Ti221 . 6_6545 4.006(2) 4.006(2) 4.006(2) ?
  Ti21 Ti221 . 6_6555 4.059(2) 4.059(2) 4.059(2) ?
  Ti21 Ti221 . 8_4555 4.059(2) 4.059(2) 4.059(2) ?
  Ti21 Ti221 . 8_4565 4.006(2) 4.006(2) 4.006(2) ?
  Ti21 Fe221 . 6_6545 4.006(2) 4.006(2) 4.006(2) ?
  Ti21 Fe221 . 6_6555 4.059(2) 4.059(2) 4.059(2) ?
  Ti21 Fe221 . 8_4555 4.059(2) 4.059(2) 4.059(2) ?
  Ti21 Fe221 . 8_4565 4.006(2) 4.006(2) 4.006(2) ?
  Ti21 O11 . 6_5545 4.51(3) 4.51(3) 4.51(3) ?
  Ti21 O11 . 6_5555 4.61(3) 4.61(3) 4.61(3) ?
  Ti21 O11 . 6_5645 4.13(3) 4.13(3) 4.13(3) ?
  Ti21 O11 . 6_5655 4.32(3) 4.32(3) 4.32(3) ?
  Ti21 O11 . 8_5455 4.32(3) 4.32(3) 4.32(3) ?
  Ti21 O11 . 8_5465 4.13(3) 4.13(3) 4.13(3) ?
  Ti21 O11 . 8_5555 4.61(3) 4.61(3) 4.61(3) ?
  Ti21 O11 . 8_5565 4.51(3) 4.51(3) 4.51(3) ?
  Ti21 O21 . 6_5545 4.64(9) 4.64(9) 4.64(9) ?
  Ti21 O21 . 6_5555 4.19(9) 4.19(9) 4.19(9) ?
  Ti21 O21 . 6_5645 4.48(8) 4.48(8) 4.48(8) ?
  Ti21 O21 . 6_5655 3.21(8) 3.21(8) 3.21(8) ?
  Ti21 O21 . 8_5455 3.21(8) 3.21(8) 3.21(8) ?
  Ti21 O21 . 8_5465 4.48(8) 4.48(8) 4.48(8) ?
  Ti21 O21 . 8_5555 4.19(9) 4.19(9) 4.19(9) ?
  Ti21 O21 . 8_5565 4.64(9) 4.64(9) 4.64(9) ?
  Ti21 O31 . 6_6645 5.00(8) 5.00(8) 5.00(8) ?
  Ti21 O31 . 6_6655 3.62(8) 3.62(8) 3.62(8) ?
  Ti21 O31 . 8_4455 3.62(8) 3.62(8) 3.62(8) ?
  Ti21 O31 . 8_4465 5.00(8) 5.00(8) 5.00(8) ?
  Fe21 O1 . 1_6555 1.99(3) 1.99(3) 1.99(3) ?
  Fe21 O1 . 7_5565 1.99(3) 1.99(3) 1.99(3) ?
  Fe21 O2 . . 4.61(3) 4.61(3) 4.61(3) ?
  Fe21 O2 . 1_6555 4.14(3) 4.14(3) 4.14(3) ?
  Fe21 O2 . 7_5565 4.14(3) 4.14(3) 4.14(3) ?
  Fe21 O2 . 7_6565 4.61(3) 4.61(3) 4.61(3) ?
  Fe21 O3 . 1_5455 4.60(3) 4.60(3) 4.60(3) ?
  Fe21 O3 . . 1.97(3) 1.97(3) 1.97(3) ?
  Fe21 O3 . 1_5565 4.16(3) 4.16(3) 4.16(3) ?
  Fe21 O3 . 7_6555 4.16(3) 4.16(3) 4.16(3) ?
  Fe21 O3 . 7_6565 1.97(3) 1.97(3) 1.97(3) ?
  Fe21 O3 . 7_6665 4.60(3) 4.60(3) 4.60(3) ?
  Fe21 La11 . 6_5555 3.2270(18) 3.2270(18) 3.2270(18) ?
  Fe21 La11 . 6_5655 3.4494(14) 3.4494(14) 3.4494(14) ?
  Fe21 La11 . 8_5455 3.4494(14) 3.4494(14) 3.4494(14) ?
  Fe21 La11 . 8_5555 3.2270(18) 3.2270(18) 3.2270(18) ?
  Fe21 Ti221 . 6_6545 4.006(2) 4.006(2) 4.006(2) ?
  Fe21 Ti221 . 6_6555 4.059(2) 4.059(2) 4.059(2) ?
  Fe21 Ti221 . 8_4555 4.059(2) 4.059(2) 4.059(2) ?
  Fe21 Ti221 . 8_4565 4.006(2) 4.006(2) 4.006(2) ?
  Fe21 Fe221 . 6_6545 4.006(2) 4.006(2) 4.006(2) ?
  Fe21 Fe221 . 6_6555 4.059(2) 4.059(2) 4.059(2) ?
  Fe21 Fe221 . 8_4555 4.059(2) 4.059(2) 4.059(2) ?
  Fe21 Fe221 . 8_4565 4.006(2) 4.006(2) 4.006(2) ?
  Fe21 O11 . 6_5545 4.51(3) 4.51(3) 4.51(3) ?
  Fe21 O11 . 6_5555 4.61(3) 4.61(3) 4.61(3) ?
  Fe21 O11 . 6_5645 4.13(3) 4.13(3) 4.13(3) ?
  Fe21 O11 . 6_5655 4.32(3) 4.32(3) 4.32(3) ?
  Fe21 O11 . 8_5455 4.32(3) 4.32(3) 4.32(3) ?
  Fe21 O11 . 8_5465 4.13(3) 4.13(3) 4.13(3) ?
  Fe21 O11 . 8_5555 4.61(3) 4.61(3) 4.61(3) ?
  Fe21 O11 . 8_5565 4.51(3) 4.51(3) 4.51(3) ?
  Fe21 O21 . 6_5545 4.64(9) 4.64(9) 4.64(9) ?
  Fe21 O21 . 6_5555 4.19(9) 4.19(9) 4.19(9) ?
  Fe21 O21 . 6_5645 4.48(8) 4.48(8) 4.48(8) ?
  Fe21 O21 . 6_5655 3.21(8) 3.21(8) 3.21(8) ?
  Fe21 O21 . 8_5455 3.21(8) 3.21(8) 3.21(8) ?
  Fe21 O21 . 8_5465 4.48(8) 4.48(8) 4.48(8) ?
  Fe21 O21 . 8_5555 4.19(9) 4.19(9) 4.19(9) ?
  Fe21 O21 . 8_5565 4.64(9) 4.64(9) 4.64(9) ?
  Fe21 O31 . 6_6645 5.00(8) 5.00(8) 5.00(8) ?
  Fe21 O31 . 6_6655 3.62(8) 3.62(8) 3.62(8) ?
  Fe21 O31 . 8_4455 3.62(8) 3.62(8) 3.62(8) ?
  Fe21 O31 . 8_4465 5.00(8) 5.00(8) 5.00(8) ?
  Ti23 Fe23 . . 0 0 0 ?
  Ti23 O1 . 1_6555 2.02(2) 2.02(2) 2.02(2) ?
  Ti23 O1 . 7_5565 1.98(2) 1.98(2) 1.98(2) ?
  Ti23 O2 . . 4.42(3) 4.42(3) 4.42(3) ?
  Ti23 O2 . 1_6555 4.20(3) 4.20(3) 4.20(3) ?
  Ti23 O2 . 2_6655 4.21(3) 4.21(3) 4.21(3) ?
  Ti23 O2 . 7_5565 4.22(3) 4.22(3) 4.22(3) ?
  Ti23 O2 . 7_6565 4.81(3) 4.81(3) 4.81(3) ?
  Ti23 O3 . 1_5455 4.63(3) 4.63(3) 4.63(3) ?
  Ti23 O3 . . 1.78(3) 1.78(3) 1.78(3) ?
  Ti23 O3 . 1_5565 4.16(3) 4.16(3) 4.16(3) ?
  Ti23 O3 . 2_6655 4.29(3) 4.29(3) 4.29(3) ?
  Ti23 O3 . 7_6555 3.96(2) 3.96(2) 3.96(2) ?
  Ti23 O3 . 7_6565 2.27(3) 2.27(3) 2.27(3) ?
  Ti23 La11 . 6_5555 3.4065(15) 3.4065(15) 3.4065(15) ?
  Ti23 La11 . 8_5455 3.6264(17) 3.6264(17) 3.6264(17) ?
  Ti23 Ti221 . 8_4455 3.709(2) 3.709(2) 3.709(2) ?
  Ti23 Ti221 . 8_4465 4.001(2) 4.001(2) 4.001(2) ?
  Ti23 Fe221 . 8_4455 3.709(2) 3.709(2) 3.709(2) ?
  Ti23 Fe221 . 8_4465 4.001(2) 4.001(2) 4.001(2) ?
  Ti23 O11 . 6_5545 4.39(3) 4.39(3) 4.39(3) ?
  Ti23 O11 . 6_5555 4.85(3) 4.85(3) 4.85(3) ?
  Ti23 O11 . 8_5455 4.14(3) 4.14(3) 4.14(3) ?
  Ti23 O11 . 8_5465 4.36(3) 4.36(3) 4.36(3) ?
  Ti23 O21 . 5_5555 3.08(3) 3.08(3) 3.08(3) ?
  Ti23 O21 . 6_5545 4.99(8) 4.99(8) 4.99(8) ?
  Ti23 O21 . 6_5555 4.22(8) 4.22(8) 4.22(8) ?
  Ti23 O21 . 6_5645 4.37(3) 4.37(3) 4.37(3) ?
  Ti23 O21 . 6_5655 3.20(3) 3.20(3) 3.20(3) ?
  Ti23 O21 . 8_5455 3.10(9) 3.10(9) 3.10(9) ?
  Ti23 O21 . 8_5465 4.03(9) 4.03(9) 4.03(9) ?
  Ti23 O31 . 5_4555 3.24(2) 3.24(2) 3.24(2) ?
  Ti23 O31 . 6_6555 4.72(8) 4.72(8) 4.72(8) ?
  Ti23 O31 . 6_6645 4.36(2) 4.36(2) 4.36(2) ?
  Ti23 O31 . 6_6655 2.90(3) 2.90(3) 2.90(3) ?
  Ti23 O31 . 8_3455 4.65(9) 4.65(9) 4.65(9) ?
  Ti23 O31 . 8_4455 4.81(9) 4.81(9) 4.81(9) ?
  Fe23 O1 . 1_6555 2.02(2) 2.02(2) 2.02(2) ?
  Fe23 O1 . 7_5565 1.98(2) 1.98(2) 1.98(2) ?
  Fe23 O2 . . 4.42(3) 4.42(3) 4.42(3) ?
  Fe23 O2 . 1_6555 4.20(3) 4.20(3) 4.20(3) ?
  Fe23 O2 . 2_6655 4.21(3) 4.21(3) 4.21(3) ?
  Fe23 O2 . 7_5565 4.22(3) 4.22(3) 4.22(3) ?
  Fe23 O2 . 7_6565 4.81(3) 4.81(3) 4.81(3) ?
  Fe23 O3 . 1_5455 4.63(3) 4.63(3) 4.63(3) ?
  Fe23 O3 . . 1.78(3) 1.78(3) 1.78(3) ?
  Fe23 O3 . 1_5565 4.16(3) 4.16(3) 4.16(3) ?
  Fe23 O3 . 2_6655 4.29(3) 4.29(3) 4.29(3) ?
  Fe23 O3 . 7_6555 3.96(2) 3.96(2) 3.96(2) ?
  Fe23 O3 . 7_6565 2.27(3) 2.27(3) 2.27(3) ?
  Fe23 La11 . 6_5555 3.4065(15) 3.4065(15) 3.4065(15) ?
  Fe23 La11 . 8_5455 3.6264(17) 3.6264(17) 3.6264(17) ?
  Fe23 Ti221 . 8_4455 3.709(2) 3.709(2) 3.709(2) ?
  Fe23 Ti221 . 8_4465 4.001(2) 4.001(2) 4.001(2) ?
  Fe23 Fe221 . 8_4455 3.709(2) 3.709(2) 3.709(2) ?
  Fe23 Fe221 . 8_4465 4.001(2) 4.001(2) 4.001(2) ?
  Fe23 O11 . 6_5545 4.39(3) 4.39(3) 4.39(3) ?
  Fe23 O11 . 6_5555 4.85(3) 4.85(3) 4.85(3) ?
  Fe23 O11 . 8_5455 4.14(3) 4.14(3) 4.14(3) ?
  Fe23 O11 . 8_5465 4.36(3) 4.36(3) 4.36(3) ?
  Fe23 O21 . 5_5555 3.08(3) 3.08(3) 3.08(3) ?
  Fe23 O21 . 6_5545 4.99(8) 4.99(8) 4.99(8) ?
  Fe23 O21 . 6_5555 4.22(8) 4.22(8) 4.22(8) ?
  Fe23 O21 . 6_5645 4.37(3) 4.37(3) 4.37(3) ?
  Fe23 O21 . 6_5655 3.20(3) 3.20(3) 3.20(3) ?
  Fe23 O21 . 8_5455 3.10(9) 3.10(9) 3.10(9) ?
  Fe23 O21 . 8_5465 4.03(9) 4.03(9) 4.03(9) ?
  Fe23 O31 . 5_4555 3.24(2) 3.24(2) 3.24(2) ?
  Fe23 O31 . 6_6555 4.72(8) 4.72(8) 4.72(8) ?
  Fe23 O31 . 6_6645 4.36(2) 4.36(2) 4.36(2) ?
  Fe23 O31 . 6_6655 2.90(3) 2.90(3) 2.90(3) ?
  Fe23 O31 . 8_3455 4.65(9) 4.65(9) 4.65(9) ?
  Fe23 O31 . 8_4455 4.81(9) 4.81(9) 4.81(9) ?
  O1 O1 . 7_4565 3.97(4) 3.96(3) 3.97(4) ?
  O1 O1 . 7_5565 3.97(4) 3.97(4) 3.97(3) ?
  O1 O2 . 1_5455 4.85(4) 4.77(4) 4.93(4) ?
  O1 O2 . . 2.84(4) 2.78(3) 2.94(4) ?
  O1 O2 . 1_5565 4.22(3) 4.09(3) 4.34(3) ?
  O1 O2 . 2_5655 3.82(3) 3.82(3) 3.82(3) ?
  O1 O2 . 7_5555 4.94(4) 4.88(3) 5.00(4) ?
  O1 O2 . 7_5565 2.81(4) 2.75(4) 2.87(4) ?
  O1 O2 . 7_5665 4.94(4) 4.88(4) 5.00(4) ?
  O1 O3 . 1_4455 4.89(4) 4.80(4) 4.98(4) ?
  O1 O3 . 1_4555 2.83(4) 2.78(3) 2.93(4) ?
  O1 O3 . 1_4565 4.17(3) 4.04(3) 4.25(3) ?
  O1 O3 . 7_5555 4.89(3) 4.85(3) 4.98(4) ?
  O1 O3 . 7_5565 2.80(4) 2.73(4) 2.88(4) ?
  O1 O3 . 7_5665 4.96(4) 4.89(4) 5.04(4) ?
  O1 O3 . 4_4455 4.02(3) 4.02(3) 4.02(3) ?
  O1 La11 . 6_4555 4.67(3) 4.65(2) 4.70(3) ?
  O1 La11 . 6_4655 4.85(2) 4.85(2) 4.85(3) ?
  O1 La11 . 6_5555 4.66(3) 4.63(2) 4.69(3) ?
  O1 La11 . 6_5655 4.84(2) 4.84(3) 4.85(2) ?
  O1 La11 . 8_4455 2.80(2) 2.75(2) 2.85(2) ?
  O1 La11 . 8_4555 2.58(2) 2.57(2) 2.578(19) ?
  O1 Ti121 . 6_5545 4.65(2) 4.65(2) 4.65(2) ?
  O1 Ti121 . 6_5555 4.31(2) 4.31(2) 4.31(2) ?
  O1 Ti121 . 6_5645 4.46(2) 4.46(2) 4.46(2) ?
  O1 Ti121 . 6_5655 3.97(2) 3.97(2) 3.97(2) ?
  O1 Ti121 . 8_4455 4.30(2) 4.30(2) 4.30(2) ?
  O1 Ti121 . 8_4465 4.01(2) 4.01(2) 4.01(2) ?
  O1 Ti121 . 8_4555 4.70(2) 4.70(2) 4.70(2) ?
  O1 Ti121 . 8_4565 4.25(2) 4.25(2) 4.25(2) ?
  O1 Fe121 . 6_5545 4.65(2) 4.65(2) 4.65(2) ?
  O1 Fe121 . 6_5555 4.31(2) 4.31(2) 4.31(2) ?
  O1 Fe121 . 6_5645 4.46(2) 4.46(2) 4.46(2) ?
  O1 Fe121 . 6_5655 3.97(2) 3.97(2) 3.97(2) ?
  O1 Fe121 . 8_4455 4.30(2) 4.30(2) 4.30(2) ?
  O1 Fe121 . 8_4465 4.01(2) 4.01(2) 4.01(2) ?
  O1 Fe121 . 8_4555 4.70(2) 4.70(2) 4.70(2) ?
  O1 Fe121 . 8_4565 4.25(2) 4.25(2) 4.25(2) ?
  O1 Ti221 . 6_5545 4.66(2) 4.66(2) 4.66(2) ?
  O1 Ti221 . 6_5555 4.31(2) 4.31(2) 4.31(2) ?
  O1 Ti221 . 6_5645 4.44(2) 4.44(2) 4.44(2) ?
  O1 Ti221 . 6_5655 3.93(2) 3.93(2) 3.93(2) ?
  O1 Ti221 . 8_3455 4.30(2) 4.30(2) 4.30(2) ?
  O1 Ti221 . 8_3465 4.02(2) 4.02(2) 4.02(2) ?
  O1 Ti221 . 8_3555 4.72(2) 4.72(2) 4.72(2) ?
  O1 Ti221 . 8_3565 4.28(2) 4.28(2) 4.28(2) ?
  O1 Fe221 . 6_5545 4.66(2) 4.66(2) 4.66(2) ?
  O1 Fe221 . 6_5555 4.31(2) 4.31(2) 4.31(2) ?
  O1 Fe221 . 6_5645 4.44(2) 4.44(2) 4.44(2) ?
  O1 Fe221 . 6_5655 3.93(2) 3.93(2) 3.93(2) ?
  O1 Fe221 . 8_3455 4.30(2) 4.30(2) 4.30(2) ?
  O1 Fe221 . 8_3465 4.02(2) 4.02(2) 4.02(2) ?
  O1 Fe221 . 8_3555 4.72(2) 4.72(2) 4.72(2) ?
  O1 Fe221 . 8_3565 4.28(2) 4.28(2) 4.28(2) ?
  O1 O11 . 8_4455 3.94(4) 3.78(4) 4.09(4) ?
  O1 O11 . 8_4465 3.40(4) 3.38(4) 3.41(4) ?
  O1 O11 . 8_4555 4.40(4) 4.39(4) 4.41(3) ?
  O1 O11 . 8_4565 3.74(4) 3.63(3) 3.86(4) ?
  O1 O21 . 5_4555 3.98(3) 3.98(3) 3.98(3) ?
  O1 O21 . 6_4555 4.59(9) 4.35(9) 4.84(8) ?
  O1 O21 . 6_4645 5.31(7) 4.39(9) 5.92(3) ?
  O1 O21 . 6_4655 4.06(7) 3.27(9) 4.64(4) ?
  O1 O21 . 6_5655 5.53(7) 4.53(4) 6.77(10) ?
  O1 O21 . 3_5565 3.83(3) 3.83(3) 3.83(3) ?
  O1 O21 . 8_4455 3.29(7) 2.75(3) 3.91(9) ?
  O1 O21 . 8_4465 4.01(7) 3.81(3) 4.16(9) ?
  O1 O21 . 8_4555 4.44(9) 3.97(8) 4.91(9) ?
  O1 O21 . 8_4565 4.76(9) 4.56(8) 4.95(9) ?
  O1 O31 . 5_3555 4.24(3) 4.24(3) 4.24(3) ?
  O1 O31 . 6_5655 5.27(7) 4.34(4) 6.43(10) ?
  O1 O31 . 6_6555 4.70(9) 4.44(9) 4.97(8) ?
  O1 O31 . 6_6645 5.51(7) 4.69(9) 6.07(3) ?
  O1 O31 . 6_6655 3.96(7) 3.01(9) 4.64(4) ?
  O1 O31 . 3_6565 3.83(3) 3.83(3) 3.83(3) ?
  O1 O31 . 8_3455 2.98(7) 2.57(3) 3.44(9) ?
  O1 O31 . 8_3465 4.09(7) 3.90(3) 4.27(9) ?
  O1 O31 . 8_3555 4.38(9) 3.97(8) 4.80(9) ?
  O1 O31 . 8_3565 5.03(9) 4.79(8) 5.27(9) ?
  O2 O2 . 2_5645 4.03(4) 4.03(4) 4.03(4) ?
  O2 O2 . 2_5655 4.03(4) 4.03(4) 4.03(4) ?
  O2 O2 . 7_5555 3.39(4) 3.36(4) 3.46(4) ?
  O2 O2 . 7_5565 4.01(4) 3.94(4) 4.04(4) ?
  O2 O2 . 7_5655 3.99(4) 3.99(4) 3.99(4) ?
  O2 O2 . 7_5665 4.41(4) 4.41(4) 4.41(4) ?
  O2 O3 . 1_4555 3.44(4) 3.23(4) 3.68(4) ?
  O2 O3 . . 4.41(4) 4.17(4) 4.61(4) ?
  O2 O3 . 2_6645 4.23(4) 4.23(4) 4.23(4) ?
  O2 O3 . 2_6655 4.15(4) 4.15(4) 4.15(4) ?
  O2 O3 . 7_5555 5.12(4) 4.90(4) 5.29(4) ?
  O2 O3 . 7_6555 5.12(4) 4.93(4) 5.23(4) ?
  O2 La11 . 6_5555 4.63(3) 4.62(3) 4.65(3) ?
  O2 La11 . 6_5645 4.90(3) 4.88(3) 4.93(3) ?
  O2 La11 . 6_5655 3.20(3) 3.15(3) 3.25(3) ?
  O2 La11 . 8_4455 4.72(3) 4.64(3) 4.80(3) ?
  O2 La11 . 8_4545 4.53(3) 4.52(3) 4.55(3) ?
  O2 La11 . 8_4555 2.67(3) 2.67(3) 2.68(3) ?
  O2 Ti121 . 6_5545 4.27(3) 4.27(3) 4.27(3) ?
  O2 Ti121 . 6_5645 1.83(3) 1.83(3) 1.83(3) ?
  O2 Ti121 . 6_5655 4.59(3) 4.59(3) 4.59(3) ?
  O2 Ti121 . 8_4455 3.92(3) 3.92(3) 3.92(3) ?
  O2 Ti121 . 8_4555 2.16(3) 2.16(3) 2.16(3) ?
  O2 Ti121 . 8_4565 4.61(3) 4.61(3) 4.61(3) ?
  O2 Fe121 . 6_5545 4.27(3) 4.27(3) 4.27(3) ?
  O2 Fe121 . 6_5645 1.83(3) 1.83(3) 1.83(3) ?
  O2 Fe121 . 6_5655 4.59(3) 4.59(3) 4.59(3) ?
  O2 Fe121 . 8_4455 3.92(3) 3.92(3) 3.92(3) ?
  O2 Fe121 . 8_4555 2.16(3) 2.16(3) 2.16(3) ?
  O2 Fe121 . 8_4565 4.61(3) 4.61(3) 4.61(3) ?
  O2 Ti221 . 6_5645 3.98(3) 3.98(3) 3.98(3) ?
  O2 Ti221 . 6_6645 4.64(3) 4.64(3) 4.64(3) ?
  O2 Ti221 . 8_3555 4.26(3) 4.26(3) 4.26(3) ?
  O2 Ti221 . 8_4555 4.69(3) 4.69(3) 4.69(3) ?
  O2 Fe221 . 6_5645 3.98(3) 3.98(3) 3.98(3) ?
  O2 Fe221 . 6_6645 4.64(3) 4.64(3) 4.64(3) ?
  O2 Fe221 . 8_3555 4.26(3) 4.26(3) 4.26(3) ?
  O2 Fe221 . 8_4555 4.69(3) 4.69(3) 4.69(3) ?
  O2 O11 . 6_5545 4.83(4) 4.74(4) 4.92(4) ?
  O2 O11 . 6_5645 2.82(4) 2.78(4) 2.85(4) ?
  O2 O11 . 8_4455 4.25(4) 4.23(4) 4.28(4) ?
  O2 O11 . 8_4555 2.79(4) 2.75(4) 2.83(4) ?
  O2 O11 . 8_4565 4.87(4) 4.81(4) 4.93(4) ?
  O2 O21 . 5_4555 4.25(4) 4.25(4) 4.25(4) ?
  O2 O21 . 5_5555 4.57(4) 4.57(4) 4.57(4) ?
  O2 O21 . 6_4645 5.17(7) 3.76(10) 6.22(4) ?
  O2 O21 . 6_5645 3.85(7) 2.97(4) 4.88(10) ?
  O2 O21 . 6_5655 4.88(7) 3.98(4) 6.09(10) ?
  O2 O21 . 8_4455 4.21(7) 3.23(4) 5.27(10) ?
  O2 O21 . 8_4555 3.83(9) 3.05(9) 4.60(10) ?
  O2 O21 . 8_5555 5.28(9) 4.58(10) 5.98(9) ?
  O2 O31 . 5_3555 4.50(4) 4.50(4) 4.50(4) ?
  O2 O31 . 5_4555 4.38(4) 4.38(4) 4.38(4) ?
  O2 O31 . 6_6645 2.78(7) 2.09(9) 3.23(4) ?
  O2 O31 . 6_6655 3.80(7) 3.63(9) 3.97(4) ?
  O2 O31 . 8_3455 3.26(7) 3.04(9) 3.47(8) ?
  O2 O31 . 8_3555 2.51(9) 2.49(8) 2.53(9) ?
  O3 O3 . 2_6645 4.39(4) 4.39(4) 4.39(4) ?
  O3 O3 . 2_6655 4.39(4) 4.39(4) 4.39(4) ?
  O3 O3 . 7_6555 3.27(4) 3.19(4) 3.41(4) ?
  O3 O3 . 7_6565 4.00(4) 3.94(4) 4.04(4) ?
  O3 O3 . 7_6655 3.99(4) 3.99(4) 3.99(4) ?
  O3 O3 . 7_6665 4.48(4) 4.48(4) 4.48(4) ?
  O3 La11 . 6_5555 4.61(3) 4.60(3) 4.61(3) ?
  O3 La11 . 6_5645 4.90(3) 4.88(3) 4.92(3) ?
  O3 La11 . 6_5655 3.23(3) 3.17(3) 3.30(3) ?
  O3 La11 . 8_5455 4.68(3) 4.63(3) 4.73(3) ?
  O3 La11 . 8_5545 4.53(3) 4.51(3) 4.54(3) ?
  O3 La11 . 8_5555 2.71(3) 2.70(3) 2.71(3) ?
  O3 Ti121 . 6_5645 4.63(3) 4.63(3) 4.63(3) ?
  O3 Ti121 . 6_6645 4.01(3) 4.01(3) 4.01(3) ?
  O3 Ti121 . 8_4555 4.70(3) 4.70(3) 4.70(3) ?
  O3 Ti121 . 8_5555 4.24(3) 4.24(3) 4.24(3) ?
  O3 Fe121 . 6_5645 4.63(3) 4.63(3) 4.63(3) ?
  O3 Fe121 . 6_6645 4.01(3) 4.01(3) 4.01(3) ?
  O3 Fe121 . 8_4555 4.70(3) 4.70(3) 4.70(3) ?
  O3 Fe121 . 8_5555 4.24(3) 4.24(3) 4.24(3) ?
  O3 Ti221 . 6_6545 4.27(3) 4.27(3) 4.27(3) ?
  O3 Ti221 . 6_6645 1.83(3) 1.83(3) 1.83(3) ?
  O3 Ti221 . 6_6655 4.62(2) 4.62(2) 4.62(2) ?
  O3 Ti221 . 8_4455 3.78(3) 3.78(3) 3.78(3) ?
  O3 Ti221 . 8_4555 2.17(3) 2.17(3) 2.17(3) ?
  O3 Ti221 . 8_4565 4.65(3) 4.65(3) 4.65(3) ?
  O3 Fe221 . 6_6545 4.27(3) 4.27(3) 4.27(3) ?
  O3 Fe221 . 6_6645 1.83(3) 1.83(3) 1.83(3) ?
  O3 Fe221 . 6_6655 4.62(2) 4.62(2) 4.62(2) ?
  O3 Fe221 . 8_4455 3.78(3) 3.78(3) 3.78(3) ?
  O3 Fe221 . 8_4555 2.17(3) 2.17(3) 2.17(3) ?
  O3 Fe221 . 8_4565 4.65(3) 4.65(3) 4.65(3) ?
  O3 O11 . 6_5545 4.77(4) 4.65(4) 4.89(4) ?
  O3 O11 . 6_5645 2.83(4) 2.81(4) 2.85(4) ?
  O3 O11 . 8_5455 4.19(4) 4.11(4) 4.28(4) ?
  O3 O11 . 8_5555 2.81(4) 2.77(4) 2.84(4) ?
  O3 O11 . 8_5565 4.90(4) 4.86(4) 4.95(4) ?
  O3 O21 . 5_5555 2.15(4) 2.15(4) 2.15(4) ?
  O3 O21 . 6_5545 4.90(9) 4.84(9) 4.96(8) ?
  O3 O21 . 6_5645 2.55(7) 1.79(9) 3.04(4) ?
  O3 O21 . 6_5655 4.06(7) 3.95(8) 4.12(4) ?
  O3 O21 . 8_5455 3.35(7) 3.23(9) 3.57(8) ?
  O3 O21 . 8_5555 2.39(9) 2.33(8) 2.45(9) ?
  O3 O31 . 5_4555 2.23(4) 2.23(4) 2.23(4) ?
  O3 O31 . 6_6645 3.81(7) 2.97(4) 4.83(10) ?
  O3 O31 . 6_6655 4.63(7) 3.85(4) 5.71(10) ?
  O3 O31 . 6_7645 5.36(7) 4.03(10) 6.35(4) ?
  O3 O31 . 8_3455 6.12(7) 4.90(10) 6.95(4) ?
  O3 O31 . 8_3555 5.48(9) 4.79(10) 6.17(9) ?
  O3 O31 . 8_4455 3.94(7) 3.04(4) 4.86(10) ?
  O3 O31 . 8_4555 3.80(9) 3.07(9) 4.53(10) ?
  La11 La11 . 3_5655 3.942(3) 3.942(3) 3.942(3) ?
  La11 La11 . 3_6655 3.916(3) 3.916(3) 3.916(3) ?
  La11 Ti121 . 1_5545 3.362(4) 3.362(4) 3.362(4) ?
  La11 Ti121 . . 3.456(4) 3.456(4) 3.456(4) ?
  La11 Ti121 . 3_6655 3.414(4) 3.414(4) 3.414(4) ?
  La11 Ti121 . 3_6665 3.376(4) 3.376(4) 3.376(4) ?
  La11 Fe121 . 1_5545 3.362(4) 3.362(4) 3.362(4) ?
  La11 Fe121 . . 3.456(4) 3.456(4) 3.456(4) ?
  La11 Fe121 . 3_6655 3.414(4) 3.414(4) 3.414(4) ?
  La11 Fe121 . 3_6665 3.376(4) 3.376(4) 3.376(4) ?
  La11 Ti221 . 1_4545 3.389(4) 3.389(4) 3.389(4) ?
  La11 Ti221 . 1_4555 3.471(4) 3.471(4) 3.471(4) ?
  La11 Ti221 . 3_6655 3.404(4) 3.404(4) 3.404(4) ?
  La11 Ti221 . 3_6665 3.378(4) 3.378(4) 3.378(4) ?
  La11 Fe221 . 1_4545 3.389(4) 3.389(4) 3.389(4) ?
  La11 Fe221 . 1_4555 3.471(4) 3.471(4) 3.471(4) ?
  La11 Fe221 . 3_6655 3.404(4) 3.404(4) 3.404(4) ?
  La11 Fe221 . 3_6665 3.378(4) 3.378(4) 3.378(4) ?
  La11 O11 . 1_5545 2.67(3) 2.62(3) 2.72(3) ?
  La11 O11 . . 2.93(3) 2.91(3) 2.96(3) ?
  La11 O11 . 3_5655 4.87(3) 4.84(4) 4.90(3) ?
  La11 O11 . 3_5665 4.76(3) 4.74(3) 4.78(4) ?
  La11 O11 . 3_6655 4.85(3) 4.83(4) 4.87(3) ?
  La11 O11 . 3_6665 4.74(3) 4.71(3) 4.77(4) ?
  La11 O21 . 1_5455 4.89(5) 4.61(2) 5.18(8) ?
  La11 O21 . 1_5545 3.83(8) 3.73(8) 3.93(9) ?
  La11 O21 . . 2.76(8) 2.11(8) 3.41(9) ?
  La11 O21 . 3_5655 3.40(9) 2.99(9) 3.82(8) ?
  La11 O21 . 3_5665 4.29(8) 3.63(9) 4.95(8) ?
  La11 O21 . 3_6655 5.77(9) 4.92(8) 6.62(9) ?
  La11 O31 . 1_4455 4.70(5) 4.45(2) 4.95(8) ?
  La11 O31 . 1_4545 4.07(8) 3.92(7) 4.21(9) ?
  La11 O31 . 1_4555 2.52(8) 1.95(8) 3.09(9) ?
  La11 O31 . 3_6655 5.56(9) 4.75(8) 6.37(9) ?
  La11 O31 . 3_7655 3.35(9) 2.84(9) 3.86(8) ?
  La11 O31 . 3_7665 4.63(8) 4.08(9) 5.18(8) ?
  Ti121 Fe121 . . 0 0 0 ?
  Ti121 Ti221 . 1_4555 3.935(7) 3.935(7) 3.935(7) ?
  Ti121 Ti221 . . 3.905(7) 3.905(7) 3.905(7) ?
  Ti121 Fe221 . 1_4555 3.935(7) 3.935(7) 3.935(7) ?
  Ti121 Fe221 . . 3.905(7) 3.905(7) 3.905(7) ?
  Ti121 O11 . . 1.96(4) 1.96(4) 1.96(4) ?
  Ti121 O11 . 3_6665 2.00(4) 2.00(4) 2.00(4) ?
  Ti121 O21 . . 4.24(10) 4.24(10) 4.24(10) ?
  Ti121 O21 . 1_6555 3.71(10) 3.71(10) 3.71(10) ?
  Ti121 O21 . 3_6665 2.80(8) 2.80(8) 2.80(8) ?
  Ti121 O21 . 3_6765 4.71(3) 4.71(3) 4.71(3) ?
  Ti121 O31 . 1_4555 1.09(9) 1.09(9) 1.09(9) ?
  Ti121 O31 . 1_4565 4.81(8) 4.81(8) 4.81(8) ?
  Ti121 O31 . 3_7655 4.84(8) 4.84(8) 4.84(8) ?
  Ti121 O31 . 3_7665 1.99(8) 1.99(8) 1.99(8) ?
  Ti121 O31 . 3_7765 4.75(3) 4.75(3) 4.75(3) ?
  Fe121 Ti221 . 1_4555 3.935(7) 3.935(7) 3.935(7) ?
  Fe121 Ti221 . . 3.905(7) 3.905(7) 3.905(7) ?
  Fe121 Fe221 . 1_4555 3.935(7) 3.935(7) 3.935(7) ?
  Fe121 Fe221 . . 3.905(7) 3.905(7) 3.905(7) ?
  Fe121 O11 . . 1.96(4) 1.96(4) 1.96(4) ?
  Fe121 O11 . 3_6665 2.00(4) 2.00(4) 2.00(4) ?
  Fe121 O21 . . 4.24(10) 4.24(10) 4.24(10) ?
  Fe121 O21 . 1_6555 3.71(10) 3.71(10) 3.71(10) ?
  Fe121 O21 . 3_6665 2.80(8) 2.80(8) 2.80(8) ?
  Fe121 O21 . 3_6765 4.71(3) 4.71(3) 4.71(3) ?
  Fe121 O31 . 1_4555 1.09(9) 1.09(9) 1.09(9) ?
  Fe121 O31 . 1_4565 4.81(8) 4.81(8) 4.81(8) ?
  Fe121 O31 . 3_7655 4.84(8) 4.84(8) 4.84(8) ?
  Fe121 O31 . 3_7665 1.99(8) 1.99(8) 1.99(8) ?
  Fe121 O31 . 3_7765 4.75(3) 4.75(3) 4.75(3) ?
  Ti221 Fe221 . . 0 0 0 ?
  Ti221 O11 . 1_6555 1.98(4) 1.98(4) 1.98(4) ?
  Ti221 O11 . 3_6665 2.01(4) 2.01(4) 2.01(4) ?
  Ti221 O21 . 1_6555 0.67(9) 0.67(9) 0.67(9) ?
  Ti221 O21 . 3_6655 4.94(8) 4.94(8) 4.94(8) ?
  Ti221 O21 . 3_6665 1.72(8) 1.72(8) 1.72(8) ?
  Ti221 O21 . 3_6765 4.73(3) 4.73(3) 4.73(3) ?
  Ti221 O31 . 1_4555 3.94(9) 3.94(9) 3.94(9) ?
  Ti221 O31 . . 4.18(9) 4.18(9) 4.18(9) ?
  Ti221 O31 . 3_7665 2.77(8) 2.77(8) 2.77(8) ?
  Ti221 O31 . 3_7765 4.57(3) 4.57(3) 4.57(3) ?
  Fe221 O11 . 1_6555 1.98(4) 1.98(4) 1.98(4) ?
  Fe221 O11 . 3_6665 2.01(4) 2.01(4) 2.01(4) ?
  Fe221 O21 . 1_6555 0.67(9) 0.67(9) 0.67(9) ?
  Fe221 O21 . 3_6655 4.94(8) 4.94(8) 4.94(8) ?
  Fe221 O21 . 3_6665 1.72(8) 1.72(8) 1.72(8) ?
  Fe221 O21 . 3_6765 4.73(3) 4.73(3) 4.73(3) ?
  Fe221 O31 . 1_4555 3.94(9) 3.94(9) 3.94(9) ?
  Fe221 O31 . . 4.18(9) 4.18(9) 4.18(9) ?
  Fe221 O31 . 3_7665 2.77(8) 2.77(8) 2.77(8) ?
  Fe221 O31 . 3_7765 4.57(3) 4.57(3) 4.57(3) ?
  O11 O11 . 3_5665 3.98(5) 3.98(5) 3.98(5) ?
  O11 O11 . 3_6665 3.95(5) 3.95(5) 3.95(5) ?
  O11 O21 . 1_5455 5.06(6) 4.75(4) 5.38(8) ?
  O11 O21 . . 1.77(9) 1.24(8) 2.31(10) ?
  O11 O21 . 1_5565 5.08(9) 4.58(8) 5.59(9) ?
  O11 O21 . 3_5665 2.72(10) 1.94(10) 3.49(9) ?
  O11 O21 . 3_6665 5.45(10) 4.68(9) 6.21(10) ?
  O11 O31 . 1_4455 4.97(6) 4.69(4) 5.25(8) ?
  O11 O31 . 1_4555 1.84(9) 1.37(8) 2.31(10) ?
  O11 O31 . 1_4565 4.78(9) 4.38(8) 5.19(9) ?
  O11 O31 . 3_6665 5.38(10) 4.61(9) 6.14(10) ?
  O11 O31 . 3_7665 2.98(9) 2.25(10) 3.71(9) ?
  O21 O21 . 1_5455 5.40(10) 4.93(8) 5.88(12) ?
  O21 O21 . 1_5655 5.40(10) 4.93(8) 5.88(12) ?
  O21 O21 . 2_5645 3.77(4) 3.77(4) 3.77(4) ?
  O21 O21 . 2_5655 3.77(4) 3.77(4) 3.77(4) ?
  O21 O21 . 3_5655 4.60(12) 4.60(12) 4.60(12) ?
  O21 O21 . 3_5665 2.02(12) 2.02(12) 2.02(12) ?
  O21 O21 . 3_5765 4.70(10) 4.31(9) 5.47(11) ?
  O21 O31 . 1_3555 6.13(10) 3.57(13) 8.08(4) ?
  O21 O31 . 1_4455 5.47(10) 4.80(8) 6.15(12) ?
  O21 O31 . 1_4555 1.92(10) 0.31(4) 4.32(13) ?
  O21 O31 . 2_6645 3.81(4) 3.81(4) 3.81(4) ?
  O21 O31 . 2_6655 3.58(4) 3.58(4) 3.58(4) ?
  O21 O31 . 3_6655 5.82(12) 4.85(12) 6.80(12) ?
  O21 O31 . 3_6665 4.36(12) 2.92(12) 5.79(13) ?
  O21 O31 . 3_6765 5.80(10) 4.18(9) 7.19(10) ?
  O21 O31 . 3_7655 6.00(12) 4.85(12) 7.14(12) ?
  O21 O31 . 3_7665 4.65(12) 3.29(12) 6.00(13) ?
  O21 O31 . 3_7765 5.98(10) 4.28(9) 7.44(10) ?
  O31 O31 . 1_5455 5.45(10) 4.97(8) 5.93(12) ?
  O31 O31 . 1_5655 5.45(10) 4.97(8) 5.93(12) ?
  O31 O31 . 2_7645 3.63(3) 3.63(3) 3.63(3) ?
  O31 O31 . 2_7655 3.63(3) 3.63(3) 3.63(3) ?
  O31 O31 . 3_8655 4.28(11) 4.28(11) 4.28(11) ?
  O31 O31 . 3_8665 2.78(12) 2.78(12) 2.78(12) ?
  O31 O31 . 3_8765 4.75(10) 4.37(9) 5.50(11) ?

#=======================================================================
data_n5_350K
#=======================================================================

# 5. CHEMICAL DATA

_chemical_name_systematic
?
_chemical_name_common                    ?
_chemical_formula_moiety                 ?
_chemical_formula_structural             ?
_chemical_formula_analytical             ?
_chemical_formula_iupac                  ?
_chemical_formula_sum                    'Fe0.615 La3.333 O11.333 Ti2.718'
_chemical_formula_weight                 808.8
_chemical_melting_point                  ?
_chemical_compound_source                ?
_chemical_absolute_configuration         .

#=======================================================================

# 6. CRYSTAL DATA

_symmetry_cell_setting                   monoclinic
_space_group_ssg_name                    'X21/b(\a\b0)00'
loop_
 _space_group_symop_ssg_id
 _space_group_symop_ssg_operation_algebraic
 1   x1,x2,x3,x4
 2   -x1+1/4,-x2,x3+1/2,-x4+1/4
 3   -x1,-x2,-x3,-x4+1/2
 4   x1,x2+1/2,-x3+1/2,x4
 5   x1+1/2,x2,x3,x4+1/2
 6   -x1+3/4,-x2,x3+1/2,-x4+3/4
 7   -x1+1/2,-x2,-x3,-x4
 8   x1+1/2,x2+1/2,-x3+1/2,x4+1/2
 9   x1+3/4,x2+1/2,x3,x4+1/4
 10  -x1,-x2+1/2,x3+1/2,-x4+1/2
 11  -x1+3/4,-x2+1/2,-x3,-x4+3/4
 12  x1+3/4,x2,-x3+1/2,x4+1/4
 13  x1+1/4,x2+1/2,x3,x4+3/4
 14  -x1+1/2,-x2+1/2,x3+1/2,-x4
 15  -x1+1/4,-x2+1/2,-x3,-x4+1/4
 16  x1+1/4,x2,-x3+1/2,x4+3/4
_cell_length_a                           7.8422(16)
_cell_length_b                           5.2254(14)
_cell_length_c                           5.5484(12)
_cell_angle_alpha                        90
_cell_angle_beta                         90
_cell_angle_gamma                        89.998(17)
_cell_volume                             227.37(9)

loop_
 _jana_cell_twin_matrix_id
 _jana_cell_twin_volume_fraction
 _jana_cell_twin_matrix_1_1
 _jana_cell_twin_matrix_1_2
 _jana_cell_twin_matrix_1_3
 _jana_cell_twin_matrix_2_1
 _jana_cell_twin_matrix_2_2
 _jana_cell_twin_matrix_2_3
 _jana_cell_twin_matrix_3_1
 _jana_cell_twin_matrix_3_2
 _jana_cell_twin_matrix_3_3
1 0.6160(12)
1 0 0
0 1 0
0 0 1
2 0.3840(12)
1 0 0
0 -1 0
0 0 -1

_cell_modulation_dimension               1
loop_
 _cell_wave_vector_seq_id
 _cell_wave_vector_x
 _cell_wave_vector_y
 _cell_wave_vector_z
 1  0.000000  0.083333  0.000000

_jana_cell_commen_supercell_matrix_1_1   1
_jana_cell_commen_supercell_matrix_1_2   0
_jana_cell_commen_supercell_matrix_1_3   0
_jana_cell_commen_supercell_matrix_2_1   0
_jana_cell_commen_supercell_matrix_2_2   12
_jana_cell_commen_supercell_matrix_2_3   0
_jana_cell_commen_supercell_matrix_3_1   0
_jana_cell_commen_supercell_matrix_3_2   0
_jana_cell_commen_supercell_matrix_3_3   1
_jana_cell_commen_t_section_1            0

_cell_formula_units_Z                    1

_cell_measurement_reflns_used            ?
_cell_measurement_theta_min              ?
_cell_measurement_theta_max              ?
_cell_measurement_temperature            350
_cell_special_details
?

_exptl_crystal_density_diffrn            5.9049
_exptl_crystal_density_meas              ?
_exptl_crystal_density_method            ?
_exptl_crystal_F_000                     356

_exptl_absorpt_coefficient_mu            18.575
_exptl_crystal_description               ?
_exptl_crystal_size_max                  ?
_exptl_crystal_size_mid                  ?
_exptl_crystal_size_min                  ?
_exptl_crystal_size_rad                  ?
_exptl_crystal_colour                    ?
_exptl_absorpt_correction_type           ?
_exptl_absorpt_process_details           ?
_exptl_absorpt_correction_T_min          ?
_exptl_absorpt_correction_T_max          ?

#=======================================================================

# 7. EXPERIMENTAL DATA

_exptl_special_details                   ?

_diffrn_ambient_temperature              350
_diffrn_source                           ?
_diffrn_source_power                     ?
_diffrn_source_voltage                   ?
_diffrn_source_current                   ?
_diffrn_radiation_type                   ?
_diffrn_radiation_source                 'X-ray tube'
_diffrn_radiation_wavelength             0.71069
_diffrn_radiation_monochromator          graphite
_diffrn_measurement_device               'four-cycle diffractometer'
_diffrn_measurement_device_type          'Bruker CCD'
_diffrn_detector                         ?
_diffrn_detector_area_resol_mean         ?
_diffrn_measurement_method               ?
_diffrn_measurement_specimen_support     ?

_diffrn_reflns_number                    58567
_diffrn_reflns_theta_min                 2.6
_diffrn_reflns_theta_max                 36.45
_diffrn_reflns_theta_full                33.98
_diffrn_measured_fraction_theta_max      0.94
_diffrn_measured_fraction_theta_full     0.98
_diffrn_reflns_av_R_equivalents          0.0446
_diffrn_reflns_av_sigmaI/netI            0.0221
_diffrn_reflns_limit_h_min               -13
_diffrn_reflns_limit_h_max               13
_diffrn_reflns_limit_k_min               -8
_diffrn_reflns_limit_k_max               8
_diffrn_reflns_limit_l_min               -9
_diffrn_reflns_limit_l_max               9
_diffrn_reflns_limit_index_m_1_min       -5
_diffrn_reflns_limit_index_m_1_max       6
_diffrn_reflns_reduction_process         ?

_diffrn_standards_number                 ?
_diffrn_standards_interval_count         ?
_diffrn_standards_interval_time          ?
_diffrn_standards_decay_%                ?
loop_
_diffrn_standard_refln_index_h
_diffrn_standard_refln_index_k
_diffrn_standard_refln_index_l
  ? ? ?

_diffrn_radiation_probe                  x-ray

#=======================================================================

# 8. REFINEMENT DATA

_refine_special_details
?

_reflns_number_total                     6517
_reflns_number_gt                        6166
_reflns_threshold_expression             'I>3\s(I)'

_refine_ls_structure_factor_coef         F
_refine_ls_R_factor_gt                   0.0340
_refine_ls_wR_factor_gt                  0.0500
_refine_ls_R_factor_all                  0.0367
_refine_ls_wR_factor_ref                 0.0503
_refine_ls_goodness_of_fit_ref           2.83
_refine_ls_goodness_of_fit_gt            2.90
_refine_ls_restrained_S_gt               ?
_refine_ls_restrained_S_all              ?
_refine_ls_number_reflns                 6517
_refine_ls_number_parameters             147
_refine_ls_number_restraints             0
_refine_ls_number_constraints            8
_refine_ls_weighting_scheme              sigma
_refine_ls_weighting_details             'w=1/(\s^2^(F)+0.0001F^2^)'
_refine_ls_hydrogen_treatment            ?
_refine_ls_shift/su_max                  0.0094
_refine_ls_shift/su_mean                 0.0004
_refine_diff_density_max                 4.28
_refine_diff_density_min                 -3.74
_refine_ls_extinction_method
 'B-C type 1 Gaussian isotropic (Becker & Coppens, 1974)'
_refine_ls_extinction_coef               1380(60)
_refine_ls_abs_structure_details         ?
_refine_ls_abs_structure_Flack           ?
_refine_ls_abs_structure_Rogers          ?

loop_
 _atom_type_symbol
 _atom_type_scat_dispersion_real
 _atom_type_scat_dispersion_imag
 _atom_type_scat_source
 Fe  0.3463  0.8444
 'International Tables Vol C tables 4.2.6.8 and 6.1.1.1'
 La -0.2871  2.4523
 'International Tables Vol C tables 4.2.6.8 and 6.1.1.1'
 O   0.0106  0.0060
 'International Tables Vol C tables 4.2.6.8 and 6.1.1.1'
 Ti  0.2776  0.4457
 'International Tables Vol C tables 4.2.6.8 and 6.1.1.1'

_computing_data_collection               ?
_computing_cell_refinement               ?
_computing_data_reduction                ?
_computing_structure_solution            ?
_computing_structure_refinement          ?
_computing_molecular_graphics            ?
_computing_publication_material          ?

#=======================================================================

# 9. ATOMIC COORDINATES AND DISPLACEMENT PARAMETERS

loop_
 _atom_site_label
 _atom_site_type_symbol
 _atom_site_fract_x
 _atom_site_fract_y
 _atom_site_fract_z
 _atom_site_adp_type
 _atom_site_U_iso_or_equiv
 _atom_site_symmetry_multiplicity
 _atom_site_occupancy
 _atom_site_calc_flag
 _atom_site_refinement_flags
 _atom_site_disorder_assembly
 _atom_site_disorder_group
  La1 La -0.00036(2) -0.01550(4) 0.00253(3) Uani 0.00588(5) 16 0.125 d . . .
  La2 La -0.00100(6) 0.29264(5) -0.08902(5) Uani 0.00652(6) 16 0.0417 d . . .
  La3 La -0.00301(6) -0.23029(7) 0.04969(6) Uani 0.01164(7) 16 0.0417 d . . .
  Ti11 Ti 0.25 0 0.5 Uani 0.00393(12) 8 0.0221(9) d . . .
  Fe11 Fe 0.25 0 0.5 Uani 0.00393(12) 8 0.0195(9) d . . .
  Ti12 Ti 0.25 0 0.5 Uani 0.00393(12) 16 0.0341(7) d . . .
  Fe12 Fe 0.25 0 0.5 Uani 0.00393(12) 16 0.0076(7) d . . .
  Ti13 Ti 0.25 0 0.5 Uani 0.00393(12) 16 0.0416(7) d . . .
  Fe13 Fe 0.25 0 0.5 Uani 0.00393(12) 16 0.0001(7) d . . .
  Ti21 Ti 0.75 0 0.5 Uani 0.00377(12) 8 0.0224(9) d . . .
  Fe21 Fe 0.75 0 0.5 Uani 0.00377(12) 8 0.0193(9) d . . .
  Ti22 Ti 0.75 0 0.5 Uani 0.00377(12) 16 0.0353(7) d . . .
  Fe22 Fe 0.75 0 0.5 Uani 0.00377(12) 16 0.0064(7) d . . .
  Ti23 Ti 0.75 0 0.5 Uani 0.00377(12) 16 0.0397(7) d . . .
  Fe23 Fe 0.75 0 0.5 Uani 0.00377(12) 16 0.0020(7) d . . .
  O1 O 0.0000(2) 0.0033(3) 0.5523(3) Uani 0.0080(4) 16 0.2083 d . . .
  O2 O 0.2275(3) 0.2147(3) 0.2074(3) Uani 0.0075(4) 16 0.25 d . . .
  O3 O 0.7737(2) 0.2065(4) 0.2027(3) Uani 0.0077(4) 16 0.25 d . . .

loop_
 _atom_site_aniso_label
 _atom_site_aniso_type_symbol
 _atom_site_aniso_U_11
 _atom_site_aniso_U_22
 _atom_site_aniso_U_33
 _atom_site_aniso_U_12
 _atom_site_aniso_U_13
 _atom_site_aniso_U_23
 La1 La 0.00428(8) 0.00738(9) 0.00599(8) 0.00006(10) -0.00009(8) -0.00179(4)
 La2 La 0.00344(9) 0.01081(13) 0.00533(10) -0.00103(12) 0.00074(13) -0.00269(8)
 La3 La 0.00284(10) 0.02084(16) 0.01122(11) 0.00112(15) -0.00040(14)
 -0.00704(11)
 Ti11 Ti 0.0043(2) 0.0042(2) 0.0033(2) 0.0006(4) -0.0010(2) -0.00035(14)
 Fe11 Fe 0.0043(2) 0.0042(2) 0.0033(2) 0.0006(4) -0.0010(2) -0.00035(14)
 Ti12 Ti 0.0043(2) 0.0042(2) 0.0033(2) 0.0006(4) -0.0010(2) -0.00035(14)
 Fe12 Fe 0.0043(2) 0.0042(2) 0.0033(2) 0.0006(4) -0.0010(2) -0.00035(14)
 Ti13 Ti 0.0043(2) 0.0042(2) 0.0033(2) 0.0006(4) -0.0010(2) -0.00035(14)
 Fe13 Fe 0.0043(2) 0.0042(2) 0.0033(2) 0.0006(4) -0.0010(2) -0.00035(14)
 Ti21 Ti 0.0042(2) 0.0041(2) 0.0031(2) 0.0007(4) -0.0006(2) 0.00007(14)
 Fe21 Fe 0.0042(2) 0.0041(2) 0.0031(2) 0.0007(4) -0.0006(2) 0.00007(14)
 Ti22 Ti 0.0042(2) 0.0041(2) 0.0031(2) 0.0007(4) -0.0006(2) 0.00007(14)
 Fe22 Fe 0.0042(2) 0.0041(2) 0.0031(2) 0.0007(4) -0.0006(2) 0.00007(14)
 Ti23 Ti 0.0042(2) 0.0041(2) 0.0031(2) 0.0007(4) -0.0006(2) 0.00007(14)
 Fe23 Fe 0.0042(2) 0.0041(2) 0.0031(2) 0.0007(4) -0.0006(2) 0.00007(14)
 O1 O 0.0033(6) 0.0095(8) 0.0111(7) -0.0011(7) 0.0005(5) -0.0007(5)
 O2 O 0.0081(8) 0.0078(7) 0.0067(6) 0.0001(6) 0.0004(5) 0.0015(5)
 O3 O 0.0092(8) 0.0078(7) 0.0062(6) 0.0002(5) 0.0012(5) 0.0032(5)


loop_
 _atom_site_Fourier_wave_vector_seq_id
 _jana_atom_site_Fourier_wave_vector_q1_coeff
    1    1
    2    2
    3    3
    4    4
    5    5
    6    6

loop_
 _jana_atom_site_crenel_ortho_func_id
 _jana_atom_site_crenel_ortho_func_c
 _jana_atom_site_crenel_ortho_func_w
 _jana_atom_site_crenel_ortho_func_eps
 1  0.000000  0.125000  0.950000
 2  0.000000  0.208333  0.950000
 3  0.000000  0.250000  0.950000
 4  0.000000  0.250000  0.950000

loop_
_atom_site_occ_Fourier_atom_site_label
_atom_site_occ_Fourier_wave_vector_seq_id
_atom_site_occ_Fourier_param_cos
_atom_site_occ_Fourier_param_sin
 ? ? ? ?

loop_
_jana_atom_site_occ_Legendre_atom_site_label
_jana_atom_site_occ_Legendre_param_order
_jana_atom_site_occ_Legendre_param_coeff
 ? ? ?

loop_
_jana_atom_site_occ_crenel_ortho_atom_site_label
_jana_atom_site_occ_crenel_ortho_param_order
_jana_atom_site_occ_crenel_ortho_id
_jana_atom_site_occ_crenel_ortho_param_coeff
 ? ? ? ?

loop_
 _atom_site_occ_special_func_atom_site_label
 _atom_site_occ_special_func_crenel_c
 _atom_site_occ_special_func_crenel_w
 La1  0  0.125
 La2  0.107677(5)  0.0417
 La3 -0.102483(6)  0.0417
 Ti11  0  0.0417
 Fe11  0  0.0417
 Ti12  0.0417  0.0417
 Fe12  0.0417  0.0417
 Ti13  0.0833  0.0417
 Fe13  0.0833  0.0417
 Ti21  0  0.0417
 Fe21  0  0.0417
 Ti22  0.0417  0.0417
 Fe22  0.0417  0.0417
 Ti23  0.0833  0.0417
 Fe23  0.0833  0.0417
 O1  0  0.2083
 O2  0  0.25
 O3  0  0.25

loop_
 _atom_site_displace_Fourier_atom_site_label
 _atom_site_displace_Fourier_axis
 _atom_site_displace_Fourier_wave_vector_seq_id
 _atom_site_displace_Fourier_param_cos
 _atom_site_displace_Fourier_param_sin
 Ti11  x  1     0               -0.0056(4)
 Ti11  y  1     0                0.1286(3)
 Ti11  z  1     0               -0.0800(3)
 Ti11  x  2     0                0
 Ti11  y  2     0                0
 Ti11  z  2     0                0
 Ti11  x  3     0                0
 Ti11  y  3     0                0
 Ti11  z  3     0                0
 Ti11  x  4     0                0
 Ti11  y  4     0                0
 Ti11  z  4     0                0
 Ti11  x  5     0                0
 Ti11  y  5     0                0
 Ti11  z  5     0                0
 Ti11  x  6     0                0.0014(2)
 Ti11  y  6     0                0.02399(17)
 Ti11  z  6     0                0.02888(15)
 Fe11  x  1     0               -0.0056(4)
 Fe11  y  1     0                0.1286(3)
 Fe11  z  1     0               -0.0800(3)
 Fe11  x  2     0                0
 Fe11  y  2     0                0
 Fe11  z  2     0                0
 Fe11  x  3     0                0
 Fe11  y  3     0                0
 Fe11  z  3     0                0
 Fe11  x  4     0                0
 Fe11  y  4     0                0
 Fe11  z  4     0                0
 Fe11  x  5     0                0
 Fe11  y  5     0                0
 Fe11  z  5     0                0
 Fe11  x  6     0                0.0014(2)
 Fe11  y  6     0                0.02399(17)
 Fe11  z  6     0                0.02888(15)
 Ti12  x  1     0               -0.0056(4)
 Ti12  y  1     0                0.1286(3)
 Ti12  z  1     0               -0.0800(3)
 Ti12  x  2     0                0
 Ti12  y  2     0                0
 Ti12  z  2     0                0
 Ti12  x  3     0                0
 Ti12  y  3     0                0
 Ti12  z  3     0                0
 Ti12  x  4     0                0
 Ti12  y  4     0                0
 Ti12  z  4     0                0
 Ti12  x  5     0                0
 Ti12  y  5     0                0
 Ti12  z  5     0                0
 Ti12  x  6     0                0.0014(2)
 Ti12  y  6     0                0.02399(17)
 Ti12  z  6     0                0.02888(15)
 Fe12  x  1     0               -0.0056(4)
 Fe12  y  1     0                0.1286(3)
 Fe12  z  1     0               -0.0800(3)
 Fe12  x  2     0                0
 Fe12  y  2     0                0
 Fe12  z  2     0                0
 Fe12  x  3     0                0
 Fe12  y  3     0                0
 Fe12  z  3     0                0
 Fe12  x  4     0                0
 Fe12  y  4     0                0
 Fe12  z  4     0                0
 Fe12  x  5     0                0
 Fe12  y  5     0                0
 Fe12  z  5     0                0
 Fe12  x  6     0                0.0014(2)
 Fe12  y  6     0                0.02399(17)
 Fe12  z  6     0                0.02888(15)
 Ti13  x  1     0               -0.0056(4)
 Ti13  y  1     0                0.1286(3)
 Ti13  z  1     0               -0.0800(3)
 Ti13  x  2     0                0
 Ti13  y  2     0                0
 Ti13  z  2     0                0
 Ti13  x  3     0                0
 Ti13  y  3     0                0
 Ti13  z  3     0                0
 Ti13  x  4     0                0
 Ti13  y  4     0                0
 Ti13  z  4     0                0
 Ti13  x  5     0                0
 Ti13  y  5     0                0
 Ti13  z  5     0                0
 Ti13  x  6     0                0.0014(2)
 Ti13  y  6     0                0.02399(17)
 Ti13  z  6     0                0.02888(15)
 Fe13  x  1     0               -0.0056(4)
 Fe13  y  1     0                0.1286(3)
 Fe13  z  1     0               -0.0800(3)
 Fe13  x  2     0                0
 Fe13  y  2     0                0
 Fe13  z  2     0                0
 Fe13  x  3     0                0
 Fe13  y  3     0                0
 Fe13  z  3     0                0
 Fe13  x  4     0                0
 Fe13  y  4     0                0
 Fe13  z  4     0                0
 Fe13  x  5     0                0
 Fe13  y  5     0                0
 Fe13  z  5     0                0
 Fe13  x  6     0                0.0014(2)
 Fe13  y  6     0                0.02399(17)
 Fe13  z  6     0                0.02888(15)
 Ti21  x  1     0                0.0013(4)
 Ti21  y  1     0                0.1447(3)
 Ti21  z  1     0               -0.0872(3)
 Ti21  x  2     0                0
 Ti21  y  2     0                0
 Ti21  z  2     0                0
 Ti21  x  3     0                0
 Ti21  y  3     0                0
 Ti21  z  3     0                0
 Ti21  x  4     0                0
 Ti21  y  4     0                0
 Ti21  z  4     0                0
 Ti21  x  5     0                0
 Ti21  y  5     0                0
 Ti21  z  5     0                0
 Ti21  x  6     0               -0.0023(2)
 Ti21  y  6     0                0.02296(17)
 Ti21  z  6     0                0.02939(14)
 Fe21  x  1     0                0.0013(4)
 Fe21  y  1     0                0.1447(3)
 Fe21  z  1     0               -0.0872(3)
 Fe21  x  2     0                0
 Fe21  y  2     0                0
 Fe21  z  2     0                0
 Fe21  x  3     0                0
 Fe21  y  3     0                0
 Fe21  z  3     0                0
 Fe21  x  4     0                0
 Fe21  y  4     0                0
 Fe21  z  4     0                0
 Fe21  x  5     0                0
 Fe21  y  5     0                0
 Fe21  z  5     0                0
 Fe21  x  6     0               -0.0023(2)
 Fe21  y  6     0                0.02296(17)
 Fe21  z  6     0                0.02939(14)
 Ti22  x  1     0                0.0013(4)
 Ti22  y  1     0                0.1447(3)
 Ti22  z  1     0               -0.0872(3)
 Ti22  x  2     0                0
 Ti22  y  2     0                0
 Ti22  z  2     0                0
 Ti22  x  3     0                0
 Ti22  y  3     0                0
 Ti22  z  3     0                0
 Ti22  x  4     0                0
 Ti22  y  4     0                0
 Ti22  z  4     0                0
 Ti22  x  5     0                0
 Ti22  y  5     0                0
 Ti22  z  5     0                0
 Ti22  x  6     0               -0.0023(2)
 Ti22  y  6     0                0.02296(17)
 Ti22  z  6     0                0.02939(14)
 Fe22  x  1     0                0.0013(4)
 Fe22  y  1     0                0.1447(3)
 Fe22  z  1     0               -0.0872(3)
 Fe22  x  2     0                0
 Fe22  y  2     0                0
 Fe22  z  2     0                0
 Fe22  x  3     0                0
 Fe22  y  3     0                0
 Fe22  z  3     0                0
 Fe22  x  4     0                0
 Fe22  y  4     0                0
 Fe22  z  4     0                0
 Fe22  x  5     0                0
 Fe22  y  5     0                0
 Fe22  z  5     0                0
 Fe22  x  6     0               -0.0023(2)
 Fe22  y  6     0                0.02296(17)
 Fe22  z  6     0                0.02939(14)
 Ti23  x  1     0                0.0013(4)
 Ti23  y  1     0                0.1447(3)
 Ti23  z  1     0               -0.0872(3)
 Ti23  x  2     0                0
 Ti23  y  2     0                0
 Ti23  z  2     0                0
 Ti23  x  3     0                0
 Ti23  y  3     0                0
 Ti23  z  3     0                0
 Ti23  x  4     0                0
 Ti23  y  4     0                0
 Ti23  z  4     0                0
 Ti23  x  5     0                0
 Ti23  y  5     0                0
 Ti23  z  5     0                0
 Ti23  x  6     0               -0.0023(2)
 Ti23  y  6     0                0.02296(17)
 Ti23  z  6     0                0.02939(14)
 Fe23  x  1     0                0.0013(4)
 Fe23  y  1     0                0.1447(3)
 Fe23  z  1     0               -0.0872(3)
 Fe23  x  2     0                0
 Fe23  y  2     0                0
 Fe23  z  2     0                0
 Fe23  x  3     0                0
 Fe23  y  3     0                0
 Fe23  z  3     0                0
 Fe23  x  4     0                0
 Fe23  y  4     0                0
 Fe23  z  4     0                0
 Fe23  x  5     0                0
 Fe23  y  5     0                0
 Fe23  z  5     0                0
 Fe23  x  6     0               -0.0023(2)
 Fe23  y  6     0                0.02296(17)
 Fe23  z  6     0                0.02939(14)

loop_
_jana_atom_site_displace_Legendre_atom_site_label
_jana_atom_site_displace_Legendre_axis
_jana_atom_site_displace_Legendre_param_order
_jana_atom_site_displace_Legendre_param_coeff
 ? ? ? ?

loop_
 _jana_atom_site_displace_crenel_ortho_atom_site_label
 _jana_atom_site_displace_crenel_ortho_axis
 _jana_atom_site_displace_crenel_ortho_id
 _jana_atom_site_displace_crenel_ortho_param_order
 _jana_atom_site_displace_crenel_ortho_param_coeff
 La1   x  1  1 -0.00075(5)
 La1   y  1  1  0.03292(3)
 La1   z  1  1  0.00208(3)
 La1   x  1  2  0.00025(3)
 La1   y  1  2  0.00111(4)
 La1   z  1  2 -0.00113(4)
 O1    x  2  1  0.0003(3)
 O1    y  2  1  0.0107(4)
 O1    z  2  1 -0.0137(3)
 O1    x  2  2 -0.0002(3)
 O1    y  2  2  0.0140(4)
 O1    z  2  2  0.0024(4)
 O1    x  2  3 -0.0011(4)
 O1    y  2  3  0.0036(5)
 O1    z  2  3  0.0074(4)
 O1    x  2  4  0.0004(4)
 O1    y  2  4 -0.0155(5)
 O1    z  2  4  0.0013(5)
 O2    x  3  1 -0.0006(3)
 O2    y  3  1  0.0343(3)
 O2    z  3  1  0.0035(3)
 O2    x  3  2 -0.0092(3)
 O2    y  3  2 -0.0059(3)
 O2    z  3  2  0.0154(3)
 O2    x  3  3  0.0112(3)
 O2    y  3  3 -0.0057(4)
 O2    z  3  3 -0.0083(4)
 O2    x  3  4  0.0048(3)
 O2    y  3  4  0.0081(4)
 O2    z  3  4 -0.0027(4)
 O2    x  3  5 -0.0118(4)
 O2    y  3  5  0.0048(6)
 O2    z  3  5  0.0044(5)
 O2    x  3  6  0
 O2    y  3  6  0
 O2    z  3  6  0
 O3    x  4  1  0.0000(3)
 O3    y  4  1  0.0356(3)
 O3    z  4  1  0.0012(3)
 O3    x  4  2  0.0059(3)
 O3    y  4  2  0.0006(3)
 O3    z  4  2  0.0174(3)
 O3    x  4  3 -0.0114(3)
 O3    y  4  3 -0.0061(4)
 O3    z  4  3 -0.0063(4)
 O3    x  4  4 -0.0027(3)
 O3    y  4  4  0.0058(4)
 O3    z  4  4 -0.0021(4)
 O3    x  4  5  0.0125(4)
 O3    y  4  5  0.0060(6)
 O3    z  4  5  0.0020(5)
 O3    x  4  6  0
 O3    y  4  6  0
 O3    z  4  6  0

loop_
_atom_site_displace_special_func_atom_site_label
_atom_site_displace_special_func_sawtooth_ax
_atom_site_displace_special_func_sawtooth_ay
_atom_site_displace_special_func_sawtooth_az
_atom_site_displace_special_func_sawtooth_c
_atom_site_displace_special_func_sawtooth_w
 ? ? ? ? ? ?

loop_
_atom_site_U_Fourier_atom_site_label
_atom_site_U_Fourier_tens_elem
_atom_site_U_Fourier_wave_vector_seq_id
_atom_site_U_Fourier_param_cos
_atom_site_U_Fourier_param_sin
 ? ? ? ? ?

loop_
_jana_atom_site_U_Legendre_atom_site_label
_jana_atom_site_U_Legendre_tens_elem
_jana_atom_site_U_Legendre_param_order
_jana_atom_site_U_Legendre_param_coeff
 ? ? ? ?

loop_
 _jana_atom_site_U_crenel_ortho_atom_site_label
 _jana_atom_site_U_crenel_ortho_tens_elem
 _jana_atom_site_U_crenel_ortho_id
 _jana_atom_site_U_crenel_ortho_param_order
 _jana_atom_site_U_crenel_ortho_param_coeff
 La1   U11  1  1  0.00027(5)
 La1   U22  1  1  0.00124(7)
 La1   U33  1  1  0.00074(6)
 La1   U12  1  1 -0.00046(6)
 La1   U13  1  1  0.00015(5)
 La1   U23  1  1 -0.00042(5)
 La1   U11  1  2  0.00111(6)
 La1   U22  1  2 -0.00062(8)
 La1   U33  1  2 -0.00035(6)
 La1   U12  1  2 -0.00110(11)
 La1   U13  1  2  0.00022(12)
 La1   U23  1  2  0.00059(5)


#=======================================================================

# 10. MOLECULAR GEOMETRY


loop_
 _geom_bond_atom_site_label_1
 _geom_bond_atom_site_label_2
 _geom_bond_site_ssg_symmetry_1
 _geom_bond_site_ssg_symmetry_2
 _geom_bond_distance_av
 _geom_bond_distance_min
 _geom_bond_distance_max
 _geom_bond_publ_flag
  La1 Ti11 . 1_5545 3.40323(15) 3.40323(15) 3.40323(15) ?
  La1 Ti11 . . 3.39319(15) 3.39319(15) 3.39319(15) ?
  La1 Fe11 . 1_5545 3.40323(15) 3.40323(15) 3.40323(15) ?
  La1 Fe11 . . 3.39319(15) 3.39319(15) 3.39319(15) ?
  La1 Ti21 . 1_4545 3.40286(15) 3.40286(15) 3.40286(15) ?
  La1 Ti21 . 1_4555 3.39282(15) 3.39282(15) 3.39282(15) ?
  La1 Fe21 . 1_4545 3.40286(15) 3.40286(15) 3.40286(15) ?
  La1 Fe21 . 1_4555 3.39282(15) 3.39282(15) 3.39282(15) ?
  La1 O1 . 1_5545 2.468(2) 2.468(2) 2.468(2) ?
  La1 O1 . . 3.082(2) 3.082(2) 3.082(2) ?
  La1 O2 . . 2.447(9) 2.447(9) 2.447(9) ?
  La1 O2 . 7_5555 2.770(9) 2.770(9) 2.770(9) ?
  La1 O3 . 1_4555 2.433(8) 2.433(8) 2.433(8) ?
  La1 O3 . 7_5555 2.754(8) 2.754(8) 2.754(8) ?
  La1 Ti121 . 6_5545 3.444(3) 3.444(3) 3.444(3) ?
  La1 Fe121 . 6_5545 3.444(3) 3.444(3) 3.444(3) ?
  La1 Ti221 . 6_5545 3.448(3) 3.448(3) 3.448(3) ?
  La1 Fe221 . 6_5545 3.448(3) 3.448(3) 3.448(3) ?
  La1 O11 . 8_4455 2.43(2) 2.43(2) 2.43(2) ?
  La1 O11 . 8_4555 3.14(2) 3.14(2) 3.14(2) ?
  La1 O21 . 8_4455 2.45(3) 2.45(3) 2.45(3) ?
  La1 O31 . 8_3455 2.33(3) 2.33(3) 2.33(3) ?
  La2 Ti13 . 1_5545 3.3872(7) 3.3872(7) 3.3872(7) ?
  La2 Ti13 . 2_5645 3.3715(5) 3.3715(5) 3.3715(5) ?
  La2 Fe13 . 1_5545 3.3872(7) 3.3872(7) 3.3872(7) ?
  La2 Fe13 . 2_5645 3.3715(5) 3.3715(5) 3.3715(5) ?
  La2 Ti23 . 1_4545 3.3882(6) 3.3882(6) 3.3882(6) ?
  La2 Fe23 . 1_4545 3.3882(6) 3.3882(6) 3.3882(6) ?
  La2 O1 . 1_5545 2.554(10) 2.554(10) 2.554(10) ?
  La2 O2 . . 2.441(19) 2.441(19) 2.441(19) ?
  La2 O2 . 2_5645 2.556(18) 2.556(18) 2.556(18) ?
  La2 O2 . 7_5555 3.467(17) 3.467(17) 3.467(17) ?
  La2 O3 . 1_4555 2.395(19) 2.395(19) 2.395(19) ?
  La2 O3 . 7_5555 3.432(16) 3.432(16) 3.432(16) ?
  La2 O21 . 5_4555 3.412(14) 3.412(14) 3.412(14) ?
  La3 Ti13 . 7_5565 3.4897(7) 3.4897(7) 3.4897(7) ?
  La3 Fe13 . 7_5565 3.4897(7) 3.4897(7) 3.4897(7) ?
  La3 Ti23 . 7_5565 3.4587(7) 3.4587(7) 3.4587(7) ?
  La3 Fe23 . 7_5565 3.4587(7) 3.4587(7) 3.4587(7) ?
  La3 O1 . 1_5545 2.834(9) 2.834(9) 2.834(9) ?
  La3 O1 . . 3.097(9) 3.097(9) 3.097(9) ?
  La3 O2 . . 2.870(16) 2.870(16) 2.870(16) ?
  La3 O2 . 7_5555 2.518(19) 2.518(19) 2.518(19) ?
  La3 O3 . 1_4555 2.806(16) 2.806(16) 2.806(16) ?
  La3 O3 . 7_5555 2.444(19) 2.444(19) 2.444(19) ?
  La3 O3 . 4_4455 3.067(18) 3.067(18) 3.067(18) ?
  La3 O21 . 8_4455 1.054(13) 1.054(13) 1.054(13) ?
  La3 O31 . 6_6645 3.47(3) 3.47(3) 3.47(3) ?
  La3 O31 . 3_6555 3.425(14) 3.425(14) 3.425(14) ?
  La3 O31 . 8_3455 1.096(13) 1.096(13) 1.096(13) ?
  Ti11 O1 . . 1.9820(19) 1.9820(19) 1.9820(19) ?
  Ti11 O1 . 7_5565 1.9820(19) 1.9820(19) 1.9820(19) ?
  Ti11 O2 . . 1.967(9) 1.967(9) 1.967(9) ?
  Ti11 O2 . 7_5565 1.967(9) 1.967(9) 1.967(9) ?
  Ti11 La11 . 6_5555 3.2217(13) 3.2217(13) 3.2217(13) ?
  Ti11 La11 . 6_5655 3.4399(12) 3.4399(12) 3.4399(12) ?
  Ti11 La11 . 8_4455 3.4399(12) 3.4399(12) 3.4399(12) ?
  Ti11 La11 . 8_4555 3.2217(13) 3.2217(13) 3.2217(13) ?
  Ti11 O31 . 6_6655 3.02(3) 3.02(3) 3.02(3) ?
  Ti11 O31 . 8_3455 3.02(3) 3.02(3) 3.02(3) ?
  Fe11 O1 . . 1.9820(19) 1.9820(19) 1.9820(19) ?
  Fe11 O1 . 7_5565 1.9820(19) 1.9820(19) 1.9820(19) ?
  Fe11 O2 . . 1.967(9) 1.967(9) 1.967(9) ?
  Fe11 O2 . 7_5565 1.967(9) 1.967(9) 1.967(9) ?
  Fe11 La11 . 6_5555 3.2217(13) 3.2217(13) 3.2217(13) ?
  Fe11 La11 . 6_5655 3.4399(12) 3.4399(12) 3.4399(12) ?
  Fe11 La11 . 8_4455 3.4399(12) 3.4399(12) 3.4399(12) ?
  Fe11 La11 . 8_4555 3.2217(13) 3.2217(13) 3.2217(13) ?
  Fe11 O31 . 6_6655 3.02(3) 3.02(3) 3.02(3) ?
  Fe11 O31 . 8_3455 3.02(3) 3.02(3) 3.02(3) ?
  Ti13 O1 . . 1.993(13) 1.993(13) 1.993(13) ?
  Ti13 O1 . 7_5565 2.008(12) 2.008(12) 2.008(12) ?
  Ti13 O2 . . 1.829(18) 1.829(18) 1.829(18) ?
  Ti13 O2 . 7_5565 2.216(16) 2.216(16) 2.216(16) ?
  Ti13 La11 . 6_5555 3.3711(13) 3.3711(13) 3.3711(13) ?
  Ti13 O21 . 6_5655 3.170(14) 3.170(14) 3.170(14) ?
  Ti13 O31 . 6_6655 3.116(14) 3.116(14) 3.116(14) ?
  Ti13 O31 . 8_3455 2.63(3) 2.63(3) 2.63(3) ?
  Fe13 O1 . . 1.993(13) 1.993(13) 1.993(13) ?
  Fe13 O1 . 7_5565 2.008(12) 2.008(12) 2.008(12) ?
  Fe13 O2 . . 1.829(18) 1.829(18) 1.829(18) ?
  Fe13 O2 . 7_5565 2.216(16) 2.216(16) 2.216(16) ?
  Fe13 La11 . 6_5555 3.3711(13) 3.3711(13) 3.3711(13) ?
  Fe13 O21 . 6_5655 3.170(14) 3.170(14) 3.170(14) ?
  Fe13 O31 . 6_6655 3.116(14) 3.116(14) 3.116(14) ?
  Fe13 O31 . 8_3455 2.63(3) 2.63(3) 2.63(3) ?
  Ti21 O1 . 1_6555 1.9889(19) 1.9889(19) 1.9889(19) ?
  Ti21 O1 . 7_5565 1.9889(19) 1.9889(19) 1.9889(19) ?
  Ti21 O3 . . 1.974(7) 1.974(7) 1.974(7) ?
  Ti21 O3 . 7_6565 1.974(7) 1.974(7) 1.974(7) ?
  Ti21 La11 . 6_5555 3.2285(13) 3.2285(13) 3.2285(13) ?
  Ti21 La11 . 6_5655 3.4523(12) 3.4523(12) 3.4523(12) ?
  Ti21 La11 . 8_5455 3.4523(12) 3.4523(12) 3.4523(12) ?
  Ti21 La11 . 8_5555 3.2285(13) 3.2285(13) 3.2285(13) ?
  Ti21 O21 . 6_5655 3.29(3) 3.29(3) 3.29(3) ?
  Ti21 O21 . 8_5455 3.29(3) 3.29(3) 3.29(3) ?
  Fe21 O1 . 1_6555 1.9889(19) 1.9889(19) 1.9889(19) ?
  Fe21 O1 . 7_5565 1.9889(19) 1.9889(19) 1.9889(19) ?
  Fe21 O3 . . 1.974(7) 1.974(7) 1.974(7) ?
  Fe21 O3 . 7_6565 1.974(7) 1.974(7) 1.974(7) ?
  Fe21 La11 . 6_5555 3.2285(13) 3.2285(13) 3.2285(13) ?
  Fe21 La11 . 6_5655 3.4523(12) 3.4523(12) 3.4523(12) ?
  Fe21 La11 . 8_5455 3.4523(12) 3.4523(12) 3.4523(12) ?
  Fe21 La11 . 8_5555 3.2285(13) 3.2285(13) 3.2285(13) ?
  Fe21 O21 . 6_5655 3.29(3) 3.29(3) 3.29(3) ?
  Fe21 O21 . 8_5455 3.29(3) 3.29(3) 3.29(3) ?
  Ti23 O1 . 1_6555 2.022(13) 2.022(13) 2.022(13) ?
  Ti23 O1 . 7_5565 1.978(12) 1.978(12) 1.978(12) ?
  Ti23 O3 . . 1.777(18) 1.777(18) 1.777(18) ?
  Ti23 O3 . 7_6565 2.266(15) 2.266(15) 2.266(15) ?
  Ti23 La11 . 6_5555 3.4097(13) 3.4097(13) 3.4097(13) ?
  Ti23 O21 . 5_5555 3.020(13) 3.020(13) 3.020(13) ?
  Ti23 O21 . 6_5655 3.245(14) 3.245(14) 3.245(14) ?
  Ti23 O21 . 8_5455 3.24(3) 3.24(3) 3.24(3) ?
  Ti23 O31 . 5_4555 3.231(14) 3.231(14) 3.231(14) ?
  Ti23 O31 . 6_6655 2.926(14) 2.926(14) 2.926(14) ?
  Fe23 O1 . 1_6555 2.022(13) 2.022(13) 2.022(13) ?
  Fe23 O1 . 7_5565 1.978(12) 1.978(12) 1.978(12) ?
  Fe23 O3 . . 1.777(18) 1.777(18) 1.777(18) ?
  Fe23 O3 . 7_6565 2.266(15) 2.266(15) 2.266(15) ?
  Fe23 La11 . 6_5555 3.4097(13) 3.4097(13) 3.4097(13) ?
  Fe23 O21 . 5_5555 3.020(13) 3.020(13) 3.020(13) ?
  Fe23 O21 . 6_5655 3.245(14) 3.245(14) 3.245(14) ?
  Fe23 O21 . 8_5455 3.24(3) 3.24(3) 3.24(3) ?
  Fe23 O31 . 5_4555 3.231(14) 3.231(14) 3.231(14) ?
  Fe23 O31 . 6_6655 2.926(14) 2.926(14) 2.926(14) ?
  O1 O2 . . 2.835(17) 2.779(19) 2.94(2) ?
  O1 O2 . 7_5565 2.809(17) 2.75(2) 2.87(2) ?
  O1 O3 . 1_4555 2.836(16) 2.780(19) 2.93(2) ?
  O1 O3 . 7_5565 2.806(17) 2.72(2) 2.89(2) ?
  O1 La11 . 8_4455 2.802(6) 2.755(11) 2.8491(18) ?
  O1 La11 . 8_4555 2.579(6) 2.5777(19) 2.579(10) ?
  O1 O11 . 8_4465 3.39(2) 3.36(2) 3.41(2) ?
  O1 O21 . 6_4655 4.14(3) 3.39(4) 4.676(19) ?
  O1 O21 . 8_4455 3.36(3) 2.797(16) 4.02(4) ?
  O1 O31 . 6_6655 3.91(3) 2.94(4) 4.601(19) ?
  O1 O31 . 8_3455 3.00(3) 2.555(16) 3.50(4) ?
  O2 O2 . 7_5555 3.39(2) 3.36(2) 3.451(13) ?
  O2 O3 . 1_4555 3.44(2) 3.23(2) 3.69(3) ?
  O2 La11 . 6_5655 3.201(13) 3.150(9) 3.251(17) ?
  O2 La11 . 8_4555 2.676(13) 2.669(16) 2.683(9) ?
  O2 Ti121 . 6_5645 1.838(16) 1.838(16) 1.838(16) ?
  O2 Ti121 . 8_4555 2.160(9) 2.160(9) 2.160(9) ?
  O2 Fe121 . 6_5645 1.838(16) 1.838(16) 1.838(16) ?
  O2 Fe121 . 8_4555 2.160(9) 2.160(9) 2.160(9) ?
  O2 O11 . 6_5645 2.79(3) 2.77(3) 2.80(3) ?
  O2 O11 . 8_4555 2.79(3) 2.75(3) 2.83(3) ?
  O2 O21 . 6_5645 3.85(3) 2.96(2) 4.90(4) ?
  O2 O21 . 8_4455 4.28(3) 3.28(2) 5.37(4) ?
  O2 O21 . 8_4555 3.76(3) 2.99(3) 4.54(4) ?
  O2 O31 . 6_6645 2.77(3) 2.11(4) 3.21(2) ?
  O2 O31 . 8_3455 3.25(3) 3.06(4) 3.46(3) ?
  O2 O31 . 8_3555 2.49(3) 2.45(3) 2.54(4) ?
  O3 O3 . 7_6555 3.270(19) 3.20(2) 3.407(10) ?
  O3 La11 . 6_5655 3.237(12) 3.179(8) 3.295(16) ?
  O3 La11 . 8_5555 2.713(12) 2.709(8) 2.717(16) ?
  O3 Ti221 . 6_6645 1.828(16) 1.828(16) 1.828(16) ?
  O3 Ti221 . 8_4555 2.169(8) 2.169(8) 2.169(8) ?
  O3 Fe221 . 6_6645 1.828(16) 1.828(16) 1.828(16) ?
  O3 Fe221 . 8_4555 2.169(8) 2.169(8) 2.169(8) ?
  O3 O11 . 6_5645 2.85(3) 2.82(3) 2.88(3) ?
  O3 O11 . 8_5555 2.84(3) 2.78(3) 2.89(2) ?
  O3 O21 . 5_5555 2.09(2) 2.09(2) 2.09(2) ?
  O3 O21 . 6_5645 2.58(3) 1.84(4) 3.05(2) ?
  O3 O21 . 8_5455 3.46(3) 3.32(2) 3.66(3) ?
  O3 O21 . 8_5555 2.30(3) 2.27(3) 2.33(3) ?
  O3 O31 . 5_4555 2.21(2) 2.21(2) 2.21(2) ?
  O3 O31 . 6_6645 3.88(3) 3.01(2) 4.94(4) ?
  O3 O31 . 8_4455 4.00(3) 3.07(2) 4.97(4) ?
  O3 O31 . 8_4555 3.86(3) 3.11(3) 4.61(4) ?
  La11 Ti121 . 1_5545 3.364(4) 3.364(4) 3.364(4) ?
  La11 Ti121 . . 3.460(4) 3.460(4) 3.460(4) ?
  La11 Ti121 . 3_6655 3.409(4) 3.409(4) 3.409(4) ?
  La11 Ti121 . 3_6665 3.374(4) 3.374(4) 3.374(4) ?
  La11 Fe121 . 1_5545 3.364(4) 3.364(4) 3.364(4) ?
  La11 Fe121 . . 3.460(4) 3.460(4) 3.460(4) ?
  La11 Fe121 . 3_6655 3.409(4) 3.409(4) 3.409(4) ?
  La11 Fe121 . 3_6665 3.374(4) 3.374(4) 3.374(4) ?
  La11 Ti221 . 1_4545 3.388(4) 3.388(4) 3.388(4) ?
  La11 Ti221 . 1_4555 3.470(4) 3.470(4) 3.470(4) ?
  La11 Ti221 . 3_6655 3.407(4) 3.407(4) 3.407(4) ?
  La11 Ti221 . 3_6665 3.385(4) 3.385(4) 3.385(4) ?
  La11 Fe221 . 1_4545 3.388(4) 3.388(4) 3.388(4) ?
  La11 Fe221 . 1_4555 3.470(4) 3.470(4) 3.470(4) ?
  La11 Fe221 . 3_6655 3.407(4) 3.407(4) 3.407(4) ?
  La11 Fe221 . 3_6665 3.385(4) 3.385(4) 3.385(4) ?
  La11 O11 . 1_5545 2.66(2) 2.622(19) 2.71(2) ?
  La11 O11 . . 2.95(2) 2.93(2) 2.966(19) ?
  La11 O21 . . 2.75(3) 2.10(2) 3.40(3) ?
  La11 O21 . 3_5655 3.42(3) 3.00(3) 3.84(3) ?
  La11 O31 . 1_4555 2.55(3) 1.95(2) 3.15(3) ?
  La11 O31 . 3_7655 3.27(3) 2.75(3) 3.79(3) ?
  Ti121 O11 . . 1.92(3) 1.92(3) 1.92(3) ?
  Ti121 O11 . 3_6665 1.98(3) 1.98(3) 1.98(3) ?
  Ti121 O21 . 3_6665 2.75(3) 2.75(3) 2.75(3) ?
  Ti121 O31 . 1_4555 1.11(3) 1.11(3) 1.11(3) ?
  Ti121 O31 . 3_7665 1.94(3) 1.94(3) 1.94(3) ?
  Fe121 O11 . . 1.92(3) 1.92(3) 1.92(3) ?
  Fe121 O11 . 3_6665 1.98(3) 1.98(3) 1.98(3) ?
  Fe121 O21 . 3_6665 2.75(3) 2.75(3) 2.75(3) ?
  Fe121 O31 . 1_4555 1.11(3) 1.11(3) 1.11(3) ?
  Fe121 O31 . 3_7665 1.94(3) 1.94(3) 1.94(3) ?
  Ti221 O11 . 1_6555 2.03(3) 2.03(3) 2.03(3) ?
  Ti221 O11 . 3_6665 2.03(3) 2.03(3) 2.03(3) ?
  Ti221 O21 . 1_6555 0.55(3) 0.55(3) 0.55(3) ?
  Ti221 O21 . 3_6665 1.70(3) 1.70(3) 1.70(3) ?
  Ti221 O31 . 3_7665 2.84(3) 2.84(3) 2.84(3) ?
  Fe221 O11 . 1_6555 2.03(3) 2.03(3) 2.03(3) ?
  Fe221 O11 . 3_6665 2.03(3) 2.03(3) 2.03(3) ?
  Fe221 O21 . 1_6555 0.55(3) 0.55(3) 0.55(3) ?
  Fe221 O21 . 3_6665 1.70(3) 1.70(3) 1.70(3) ?
  Fe221 O31 . 3_7665 2.84(3) 2.84(3) 2.84(3) ?
  O11 O21 . . 1.77(4) 1.21(3) 2.33(4) ?
  O11 O21 . 3_5665 2.71(4) 1.88(4) 3.54(4) ?
  O11 O31 . 1_4555 1.89(4) 1.41(3) 2.37(4) ?
  O11 O31 . 3_7665 2.88(4) 2.15(4) 3.60(4) ?
  O21 O21 . 3_5665 1.87(4) 1.87(4) 1.87(4) ?
  O21 O31 . 1_3555 6.08(4) 3.49(5) 8.05(2) ?
  O21 O31 . 1_4555 1.99(4) 0.32(2) 4.44(5) ?
  O21 O31 . 3_6665 4.39(4) 2.90(4) 5.88(5) ?
  O21 O31 . 3_7665 4.52(4) 3.16(4) 5.89(5) ?
  O31 O31 . 3_8665 2.71(4) 2.71(4) 2.71(4) ?

#=======================================================================
data_n6_090K
#=======================================================================

# 5. CHEMICAL DATA

_chemical_name_systematic
?
_chemical_name_common                    ?
_chemical_formula_moiety                 ?
_chemical_formula_structural             ?
_chemical_formula_analytical             ?
_chemical_formula_iupac                  ?
_chemical_formula_sum                    'Fe0.571 La3.429 O11.429 Ti2.858'
_chemical_formula_weight                 827.9
_chemical_melting_point                  ?
_chemical_compound_source                ?
_chemical_absolute_configuration         .

#=======================================================================

# 6. CRYSTAL DATA

_symmetry_cell_setting                   monoclinic
_space_group_ssg_name                    'X21/b(\a\b0)00'
loop_
 _space_group_symop_ssg_id
 _space_group_symop_ssg_operation_algebraic
 1   x1,x2,x3,x4
 2   -x1+1/4,-x2,x3+1/2,-x4+1/4
 3   -x1,-x2,-x3,-x4+1/2
 4   x1,x2+1/2,-x3+1/2,x4
 5   x1+3/4,x2+1/2,x3,x4+1/4
 6   -x1,-x2+1/2,x3+1/2,-x4+1/2
 7   -x1+3/4,-x2+1/2,-x3,-x4+3/4
 8   x1+3/4,x2,-x3+1/2,x4+1/4
 9   x1+1/2,x2,x3,x4+1/2
 10  -x1+3/4,-x2,x3+1/2,-x4+3/4
 11  -x1+1/2,-x2,-x3,-x4
 12  x1+1/2,x2+1/2,-x3+1/2,x4+1/2
 13  x1+1/4,x2+1/2,x3,x4+3/4
 14  -x1+1/2,-x2+1/2,x3+1/2,-x4
 15  -x1+1/4,-x2+1/2,-x3,-x4+1/4
 16  x1+1/4,x2,-x3+1/2,x4+3/4
_cell_length_a                           7.821(2)
_cell_length_b                           5.2697(18)
_cell_length_c                           5.5468(18)
_cell_angle_alpha                        90
_cell_angle_beta                         90
_cell_angle_gamma                        90.02(2)
_cell_volume                             228.62(11)

loop_
 _jana_cell_twin_matrix_id
 _jana_cell_twin_volume_fraction
 _jana_cell_twin_matrix_1_1
 _jana_cell_twin_matrix_1_2
 _jana_cell_twin_matrix_1_3
 _jana_cell_twin_matrix_2_1
 _jana_cell_twin_matrix_2_2
 _jana_cell_twin_matrix_2_3
 _jana_cell_twin_matrix_3_1
 _jana_cell_twin_matrix_3_2
 _jana_cell_twin_matrix_3_3
1 0.5890(11)
1 0 0
0 1 0
0 0 1
2 0.4110(11)
1 0 0
0 -1 0
0 0 -1

_cell_modulation_dimension               1
loop_
 _cell_wave_vector_seq_id
 _cell_wave_vector_x
 _cell_wave_vector_y
 _cell_wave_vector_z
 1  0.000000  0.071429  0.000000

_jana_cell_commen_supercell_matrix_1_1   1
_jana_cell_commen_supercell_matrix_1_2   0
_jana_cell_commen_supercell_matrix_1_3   0
_jana_cell_commen_supercell_matrix_2_1   0
_jana_cell_commen_supercell_matrix_2_2   14
_jana_cell_commen_supercell_matrix_2_3   0
_jana_cell_commen_supercell_matrix_3_1   0
_jana_cell_commen_supercell_matrix_3_2   0
_jana_cell_commen_supercell_matrix_3_3   1
_jana_cell_commen_t_section_1            0.018

_cell_formula_units_Z                    1

_cell_measurement_reflns_used            ?
_cell_measurement_theta_min              ?
_cell_measurement_theta_max              ?
_cell_measurement_temperature            90
_cell_special_details
?

_exptl_crystal_density_diffrn            6.0113
_exptl_crystal_density_meas              ?
_exptl_crystal_density_method            ?
_exptl_crystal_F_000                     367

_exptl_absorpt_coefficient_mu            18.958
_exptl_crystal_description               ?
_exptl_crystal_size_max                  ?
_exptl_crystal_size_mid                  ?
_exptl_crystal_size_min                  ?
_exptl_crystal_size_rad                  ?
_exptl_crystal_colour                    ?
_exptl_absorpt_correction_type           ?
_exptl_absorpt_process_details           ?
_exptl_absorpt_correction_T_min          ?
_exptl_absorpt_correction_T_max          ?

#=======================================================================

# 7. EXPERIMENTAL DATA

_exptl_special_details                   ?

_diffrn_ambient_temperature              90
_diffrn_source                           ?
_diffrn_source_power                     ?
_diffrn_source_voltage                   ?
_diffrn_source_current                   ?
_diffrn_radiation_type                   ?
_diffrn_radiation_source                 'X-ray tube'
_diffrn_radiation_wavelength             0.71069
_diffrn_radiation_monochromator          graphite
_diffrn_measurement_device               'four-cycle diffractometer'
_diffrn_measurement_device_type          'Bruker CCD'
_diffrn_detector                         ?
_diffrn_detector_area_resol_mean         ?
_diffrn_measurement_method               ?
_diffrn_measurement_specimen_support     ?

_diffrn_reflns_number                    48590
_diffrn_reflns_theta_min                 2.21
_diffrn_reflns_theta_max                 39.34
_diffrn_reflns_theta_full                35.53
_diffrn_measured_fraction_theta_max      0.89
_diffrn_measured_fraction_theta_full     0.98
_diffrn_reflns_av_R_equivalents          0.0549
_diffrn_reflns_av_sigmaI/netI            0.0446
_diffrn_reflns_limit_h_min               -12
_diffrn_reflns_limit_h_max               12
_diffrn_reflns_limit_k_min               -9
_diffrn_reflns_limit_k_max               9
_diffrn_reflns_limit_l_min               -8
_diffrn_reflns_limit_l_max               8
_diffrn_reflns_limit_index_m_1_min       -7
_diffrn_reflns_limit_index_m_1_max       7
_diffrn_reflns_reduction_process         ?

_diffrn_standards_number                 ?
_diffrn_standards_interval_count         ?
_diffrn_standards_interval_time          ?
_diffrn_standards_decay_%                ?
loop_
_diffrn_standard_refln_index_h
_diffrn_standard_refln_index_k
_diffrn_standard_refln_index_l
  ? ? ?

_diffrn_radiation_probe                  x-ray

#=======================================================================

# 8. REFINEMENT DATA

_refine_special_details
?

_reflns_number_total                     12253
_reflns_number_gt                        11223
_reflns_threshold_expression             'I>3\s(I)'

_refine_ls_structure_factor_coef         F
_refine_ls_R_factor_gt                   0.0677
_refine_ls_wR_factor_gt                  0.0892
_refine_ls_R_factor_all                  0.0734
_refine_ls_wR_factor_ref                 0.0900
_refine_ls_goodness_of_fit_ref           3.09
_refine_ls_goodness_of_fit_gt            3.19
_refine_ls_restrained_S_gt               ?
_refine_ls_restrained_S_all              ?
_refine_ls_number_reflns                 12253
_refine_ls_number_parameters             161
_refine_ls_number_restraints             0
_refine_ls_number_constraints            8
_refine_ls_weighting_scheme              sigma
_refine_ls_weighting_details             'w=1/(\s^2^(F)+0.0001F^2^)'
_refine_ls_hydrogen_treatment            ?
_refine_ls_shift/su_max                  0.0045
_refine_ls_shift/su_mean                 0.0005
_refine_diff_density_max                 19.06
_refine_diff_density_min                 -4.36
_refine_ls_extinction_method             'none'
_refine_ls_extinction_coef               ?
_refine_ls_abs_structure_details         ?
_refine_ls_abs_structure_Flack           ?
_refine_ls_abs_structure_Rogers          ?

loop_
 _atom_type_symbol
 _atom_type_scat_dispersion_real
 _atom_type_scat_dispersion_imag
 _atom_type_scat_source
 Fe  0.3463  0.8444
 'International Tables Vol C tables 4.2.6.8 and 6.1.1.1'
 La -0.2871  2.4523
 'International Tables Vol C tables 4.2.6.8 and 6.1.1.1'
 O   0.0106  0.0060
 'International Tables Vol C tables 4.2.6.8 and 6.1.1.1'
 Ti  0.2776  0.4457
 'International Tables Vol C tables 4.2.6.8 and 6.1.1.1'

_computing_data_collection               ?
_computing_cell_refinement               ?
_computing_data_reduction                ?
_computing_structure_solution            ?
_computing_structure_refinement          ?
_computing_molecular_graphics            ?
_computing_publication_material          ?

#=======================================================================

# 9. ATOMIC COORDINATES AND DISPLACEMENT PARAMETERS

loop_
 _atom_site_label
 _atom_site_type_symbol
 _atom_site_fract_x
 _atom_site_fract_y
 _atom_site_fract_z
 _atom_site_adp_type
 _atom_site_U_iso_or_equiv
 _atom_site_symmetry_multiplicity
 _atom_site_occupancy
 _atom_site_calc_flag
 _atom_site_refinement_flags
 _atom_site_disorder_assembly
 _atom_site_disorder_group
  La1 La -0.00032(3) -0.01897(4) 0.00295(4) Uani 0.00618(7) 16 0.1429 d . . .
  La2 La -0.00158(10) 0.29833(9) -0.08989(14) Uani 0.00668(10) 16 0.0357 d . . .
  La3 La -0.00290(10) -0.22920(10) 0.04512(15) Uani 0.01004(12) 16 0.0357 d . .
 .
  Ti11 Ti 0.25 0 0.5 Uani 0.0054(2) 8 0.021(3) d . . .
  Fe11 Fe 0.25 0 0.5 Uani 0.0054(2) 8 0.050(3) d . . .
  Ti12 Ti 0.25 0 0.5 Uani 0.0054(2) 16 0.0253(11) d . . .
  Fe12 Fe 0.25 0 0.5 Uani 0.0054(2) 16 0.0104(11) d . . .
  Ti13 Ti 0.25 0 0.5 Uani 0.0054(2) 16 0.0330(11) d . . .
  Fe13 Fe 0.25 0 0.5 Uani 0.0054(2) 16 0.0027(11) d . . .
  Ti21 Ti 0.75 0 0.5 Uani 0.0051(2) 8 0.020(3) d . . .
  Fe21 Fe 0.75 0 0.5 Uani 0.0051(2) 8 0.051(3) d . . .
  Ti22 Ti 0.75 0 0.5 Uani 0.0051(2) 16 0.0256(11) d . . .
  Fe22 Fe 0.75 0 0.5 Uani 0.0051(2) 16 0.0101(11) d . . .
  Ti23 Ti 0.75 0 0.5 Uani 0.0051(2) 16 0.0311(11) d . . .
  Fe23 Fe 0.75 0 0.5 Uani 0.0051(2) 16 0.0046(11) d . . .
  O1 O -0.0006(3) 0.0074(5) 0.5582(6) Uani 0.0085(6) 16 0.2143 d . . .
  O2 O 0.2240(4) 0.2139(5) 0.2088(5) Uani 0.0083(6) 16 0.25 d . . .
  O3 O 0.7771(3) 0.2077(5) 0.2055(5) Uani 0.0084(6) 16 0.25 d . . .

loop_
 _atom_site_aniso_label
 _atom_site_aniso_type_symbol
 _atom_site_aniso_U_11
 _atom_site_aniso_U_22
 _atom_site_aniso_U_33
 _atom_site_aniso_U_12
 _atom_site_aniso_U_13
 _atom_site_aniso_U_23
 La1 La 0.00389(13) 0.01008(9) 0.00457(13) 0.00019(10) 0.00030(12) -0.00099(6)
 La2 La 0.00321(17) 0.01259(15) 0.00424(19) -0.0005(2) -0.00079(18) -0.00153(13)
 La3 La 0.00351(18) 0.01780(18) 0.0088(2) -0.0001(2) -0.0004(2) -0.00430(15)
 Ti11 Ti 0.0054(4) 0.0089(3) 0.0019(4) -0.0023(6) -0.0029(5) -0.0001(2)
 Fe11 Fe 0.0054(4) 0.0089(3) 0.0019(4) -0.0023(6) -0.0029(5) -0.0001(2)
 Ti12 Ti 0.0054(4) 0.0089(3) 0.0019(4) -0.0023(6) -0.0029(5) -0.0001(2)
 Fe12 Fe 0.0054(4) 0.0089(3) 0.0019(4) -0.0023(6) -0.0029(5) -0.0001(2)
 Ti13 Ti 0.0054(4) 0.0089(3) 0.0019(4) -0.0023(6) -0.0029(5) -0.0001(2)
 Fe13 Fe 0.0054(4) 0.0089(3) 0.0019(4) -0.0023(6) -0.0029(5) -0.0001(2)
 Ti21 Ti 0.0054(4) 0.0077(2) 0.0021(4) -0.0022(5) -0.0025(5) 0.0006(2)
 Fe21 Fe 0.0054(4) 0.0077(2) 0.0021(4) -0.0022(5) -0.0025(5) 0.0006(2)
 Ti22 Ti 0.0054(4) 0.0077(2) 0.0021(4) -0.0022(5) -0.0025(5) 0.0006(2)
 Fe22 Fe 0.0054(4) 0.0077(2) 0.0021(4) -0.0022(5) -0.0025(5) 0.0006(2)
 Ti23 Ti 0.0054(4) 0.0077(2) 0.0021(4) -0.0022(5) -0.0025(5) 0.0006(2)
 Fe23 Fe 0.0054(4) 0.0077(2) 0.0021(4) -0.0022(5) -0.0025(5) 0.0006(2)
 O1 O 0.0009(10) 0.0155(9) 0.0091(12) 0.0016(9) -0.0008(7) 0.0005(7)
 O2 O 0.0065(13) 0.0137(9) 0.0046(10) -0.0007(8) -0.0001(8) 0.0009(7)
 O3 O 0.0062(12) 0.0136(8) 0.0055(10) -0.0004(8) 0.0017(8) 0.0007(7)


loop_
 _atom_site_Fourier_wave_vector_seq_id
 _jana_atom_site_Fourier_wave_vector_q1_coeff
    1    1
    2    2
    3    3
    4    4
    5    5
    6    6
    7    7
    8    8
    9    9
   10   10
   11   11
   12   12

loop_
 _jana_atom_site_crenel_ortho_func_id
 _jana_atom_site_crenel_ortho_func_c
 _jana_atom_site_crenel_ortho_func_w
 _jana_atom_site_crenel_ortho_func_eps
 1  0.000000  0.142857  0.950000
 2  0.110601  0.035714  0.950000
 3 -0.105665  0.035714  0.950000
 4  0.000000  0.214286  0.950000
 5  0.000000  0.250000  0.950000
 6  0.000000  0.250000  0.950000

loop_
_atom_site_occ_Fourier_atom_site_label
_atom_site_occ_Fourier_wave_vector_seq_id
_atom_site_occ_Fourier_param_cos
_atom_site_occ_Fourier_param_sin
 ? ? ? ?

loop_
_jana_atom_site_occ_Legendre_atom_site_label
_jana_atom_site_occ_Legendre_param_order
_jana_atom_site_occ_Legendre_param_coeff
 ? ? ?

loop_
_jana_atom_site_occ_crenel_ortho_atom_site_label
_jana_atom_site_occ_crenel_ortho_param_order
_jana_atom_site_occ_crenel_ortho_id
_jana_atom_site_occ_crenel_ortho_param_coeff
 ? ? ? ?

loop_
 _atom_site_occ_special_func_atom_site_label
 _atom_site_occ_special_func_crenel_c
 _atom_site_occ_special_func_crenel_w
 La1  0  0.1429
 La2  0.110601(6)  0.0357
 La3 -0.105665(7)  0.0357
 Ti11  0  0.0714
 Fe11  0  0.0714
 Ti12  0.0536  0.0357
 Fe12  0.0536  0.0357
 Ti13  0.0893  0.0357
 Fe13  0.0893  0.0357
 Ti21  0  0.0714
 Fe21  0  0.0714
 Ti22  0.0536  0.0357
 Fe22  0.0536  0.0357
 Ti23  0.0893  0.0357
 Fe23  0.0893  0.0357
 O1  0  0.2143
 O2  0  0.25
 O3  0  0.25

loop_
 _atom_site_displace_Fourier_atom_site_label
 _atom_site_displace_Fourier_axis
 _atom_site_displace_Fourier_wave_vector_seq_id
 _atom_site_displace_Fourier_param_cos
 _atom_site_displace_Fourier_param_sin
 Ti11  x  1     0               -0.0075(8)
 Ti11  y  1     0                0.1422(4)
 Ti11  z  1     0               -0.0583(5)
 Ti11  x  2     0                0
 Ti11  y  2     0                0
 Ti11  z  2     0                0
 Ti11  x  3     0                0
 Ti11  y  3     0                0
 Ti11  z  3     0                0
 Ti11  x  4     0                0
 Ti11  y  4     0                0
 Ti11  z  4     0                0
 Ti11  x  5     0                0
 Ti11  y  5     0                0
 Ti11  z  5     0                0
 Ti11  x  6     0                0.0009(4)
 Ti11  y  6     0                0.0110(2)
 Ti11  z  6     0                0.0217(3)
 Ti11  x  7     0                0
 Ti11  y  7     0                0
 Ti11  z  7     0                0
 Ti11  x  8     0                0
 Ti11  y  8     0                0
 Ti11  z  8     0                0
 Ti11  x  9     0                0
 Ti11  y  9     0                0
 Ti11  z  9     0                0
 Ti11  x 10     0                0
 Ti11  y 10     0                0
 Ti11  z 10     0                0
 Ti11  x 11     0                0
 Ti11  y 11     0                0
 Ti11  z 11     0                0
 Ti11  x 12     0                0.0014(3)
 Ti11  y 12     0               -0.00821(16)
 Ti11  z 12     0               -0.0128(4)
 Fe11  x  1     0               -0.0075(8)
 Fe11  y  1     0                0.1422(4)
 Fe11  z  1     0               -0.0583(5)
 Fe11  x  2     0                0
 Fe11  y  2     0                0
 Fe11  z  2     0                0
 Fe11  x  3     0                0
 Fe11  y  3     0                0
 Fe11  z  3     0                0
 Fe11  x  4     0                0
 Fe11  y  4     0                0
 Fe11  z  4     0                0
 Fe11  x  5     0                0
 Fe11  y  5     0                0
 Fe11  z  5     0                0
 Fe11  x  6     0                0.0009(4)
 Fe11  y  6     0                0.0110(2)
 Fe11  z  6     0                0.0217(3)
 Fe11  x  7     0                0
 Fe11  y  7     0                0
 Fe11  z  7     0                0
 Fe11  x  8     0                0
 Fe11  y  8     0                0
 Fe11  z  8     0                0
 Fe11  x  9     0                0
 Fe11  y  9     0                0
 Fe11  z  9     0                0
 Fe11  x 10     0                0
 Fe11  y 10     0                0
 Fe11  z 10     0                0
 Fe11  x 11     0                0
 Fe11  y 11     0                0
 Fe11  z 11     0                0
 Fe11  x 12     0                0.0014(3)
 Fe11  y 12     0               -0.00821(16)
 Fe11  z 12     0               -0.0128(4)
 Ti12  x  1     0               -0.0075(8)
 Ti12  y  1     0                0.1422(4)
 Ti12  z  1     0               -0.0583(5)
 Ti12  x  2     0                0
 Ti12  y  2     0                0
 Ti12  z  2     0                0
 Ti12  x  3     0                0
 Ti12  y  3     0                0
 Ti12  z  3     0                0
 Ti12  x  4     0                0
 Ti12  y  4     0                0
 Ti12  z  4     0                0
 Ti12  x  5     0                0
 Ti12  y  5     0                0
 Ti12  z  5     0                0
 Ti12  x  6     0                0.0009(4)
 Ti12  y  6     0                0.0110(2)
 Ti12  z  6     0                0.0217(3)
 Ti12  x  7     0                0
 Ti12  y  7     0                0
 Ti12  z  7     0                0
 Ti12  x  8     0                0
 Ti12  y  8     0                0
 Ti12  z  8     0                0
 Ti12  x  9     0                0
 Ti12  y  9     0                0
 Ti12  z  9     0                0
 Ti12  x 10     0                0
 Ti12  y 10     0                0
 Ti12  z 10     0                0
 Ti12  x 11     0                0
 Ti12  y 11     0                0
 Ti12  z 11     0                0
 Ti12  x 12     0                0.0014(3)
 Ti12  y 12     0               -0.00821(16)
 Ti12  z 12     0               -0.0128(4)
 Fe12  x  1     0               -0.0075(8)
 Fe12  y  1     0                0.1422(4)
 Fe12  z  1     0               -0.0583(5)
 Fe12  x  2     0                0
 Fe12  y  2     0                0
 Fe12  z  2     0                0
 Fe12  x  3     0                0
 Fe12  y  3     0                0
 Fe12  z  3     0                0
 Fe12  x  4     0                0
 Fe12  y  4     0                0
 Fe12  z  4     0                0
 Fe12  x  5     0                0
 Fe12  y  5     0                0
 Fe12  z  5     0                0
 Fe12  x  6     0                0.0009(4)
 Fe12  y  6     0                0.0110(2)
 Fe12  z  6     0                0.0217(3)
 Fe12  x  7     0                0
 Fe12  y  7     0                0
 Fe12  z  7     0                0
 Fe12  x  8     0                0
 Fe12  y  8     0                0
 Fe12  z  8     0                0
 Fe12  x  9     0                0
 Fe12  y  9     0                0
 Fe12  z  9     0                0
 Fe12  x 10     0                0
 Fe12  y 10     0                0
 Fe12  z 10     0                0
 Fe12  x 11     0                0
 Fe12  y 11     0                0
 Fe12  z 11     0                0
 Fe12  x 12     0                0.0014(3)
 Fe12  y 12     0               -0.00821(16)
 Fe12  z 12     0               -0.0128(4)
 Ti13  x  1     0               -0.0075(8)
 Ti13  y  1     0                0.1422(4)
 Ti13  z  1     0               -0.0583(5)
 Ti13  x  2     0                0
 Ti13  y  2     0                0
 Ti13  z  2     0                0
 Ti13  x  3     0                0
 Ti13  y  3     0                0
 Ti13  z  3     0                0
 Ti13  x  4     0                0
 Ti13  y  4     0                0
 Ti13  z  4     0                0
 Ti13  x  5     0                0
 Ti13  y  5     0                0
 Ti13  z  5     0                0
 Ti13  x  6     0                0.0009(4)
 Ti13  y  6     0                0.0110(2)
 Ti13  z  6     0                0.0217(3)
 Ti13  x  7     0                0
 Ti13  y  7     0                0
 Ti13  z  7     0                0
 Ti13  x  8     0                0
 Ti13  y  8     0                0
 Ti13  z  8     0                0
 Ti13  x  9     0                0
 Ti13  y  9     0                0
 Ti13  z  9     0                0
 Ti13  x 10     0                0
 Ti13  y 10     0                0
 Ti13  z 10     0                0
 Ti13  x 11     0                0
 Ti13  y 11     0                0
 Ti13  z 11     0                0
 Ti13  x 12     0                0.0014(3)
 Ti13  y 12     0               -0.00821(16)
 Ti13  z 12     0               -0.0128(4)
 Fe13  x  1     0               -0.0075(8)
 Fe13  y  1     0                0.1422(4)
 Fe13  z  1     0               -0.0583(5)
 Fe13  x  2     0                0
 Fe13  y  2     0                0
 Fe13  z  2     0                0
 Fe13  x  3     0                0
 Fe13  y  3     0                0
 Fe13  z  3     0                0
 Fe13  x  4     0                0
 Fe13  y  4     0                0
 Fe13  z  4     0                0
 Fe13  x  5     0                0
 Fe13  y  5     0                0
 Fe13  z  5     0                0
 Fe13  x  6     0                0.0009(4)
 Fe13  y  6     0                0.0110(2)
 Fe13  z  6     0                0.0217(3)
 Fe13  x  7     0                0
 Fe13  y  7     0                0
 Fe13  z  7     0                0
 Fe13  x  8     0                0
 Fe13  y  8     0                0
 Fe13  z  8     0                0
 Fe13  x  9     0                0
 Fe13  y  9     0                0
 Fe13  z  9     0                0
 Fe13  x 10     0                0
 Fe13  y 10     0                0
 Fe13  z 10     0                0
 Fe13  x 11     0                0
 Fe13  y 11     0                0
 Fe13  z 11     0                0
 Fe13  x 12     0                0.0014(3)
 Fe13  y 12     0               -0.00821(16)
 Fe13  z 12     0               -0.0128(4)
 Ti21  x  1     0               -0.0012(8)
 Ti21  y  1     0                0.1553(4)
 Ti21  z  1     0               -0.0618(5)
 Ti21  x  2     0                0
 Ti21  y  2     0                0
 Ti21  z  2     0                0
 Ti21  x  3     0                0
 Ti21  y  3     0                0
 Ti21  z  3     0                0
 Ti21  x  4     0                0
 Ti21  y  4     0                0
 Ti21  z  4     0                0
 Ti21  x  5     0                0
 Ti21  y  5     0                0
 Ti21  z  5     0                0
 Ti21  x  6     0               -0.0015(4)
 Ti21  y  6     0                0.0098(2)
 Ti21  z  6     0                0.0220(3)
 Ti21  x  7     0                0
 Ti21  y  7     0                0
 Ti21  z  7     0                0
 Ti21  x  8     0                0
 Ti21  y  8     0                0
 Ti21  z  8     0                0
 Ti21  x  9     0                0
 Ti21  y  9     0                0
 Ti21  z  9     0                0
 Ti21  x 10     0                0
 Ti21  y 10     0                0
 Ti21  z 10     0                0
 Ti21  x 11     0                0
 Ti21  y 11     0                0
 Ti21  z 11     0                0
 Ti21  x 12     0                0.0031(3)
 Ti21  y 12     0               -0.00928(16)
 Ti21  z 12     0               -0.0127(4)
 Fe21  x  1     0               -0.0012(8)
 Fe21  y  1     0                0.1553(4)
 Fe21  z  1     0               -0.0618(5)
 Fe21  x  2     0                0
 Fe21  y  2     0                0
 Fe21  z  2     0                0
 Fe21  x  3     0                0
 Fe21  y  3     0                0
 Fe21  z  3     0                0
 Fe21  x  4     0                0
 Fe21  y  4     0                0
 Fe21  z  4     0                0
 Fe21  x  5     0                0
 Fe21  y  5     0                0
 Fe21  z  5     0                0
 Fe21  x  6     0               -0.0015(4)
 Fe21  y  6     0                0.0098(2)
 Fe21  z  6     0                0.0220(3)
 Fe21  x  7     0                0
 Fe21  y  7     0                0
 Fe21  z  7     0                0
 Fe21  x  8     0                0
 Fe21  y  8     0                0
 Fe21  z  8     0                0
 Fe21  x  9     0                0
 Fe21  y  9     0                0
 Fe21  z  9     0                0
 Fe21  x 10     0                0
 Fe21  y 10     0                0
 Fe21  z 10     0                0
 Fe21  x 11     0                0
 Fe21  y 11     0                0
 Fe21  z 11     0                0
 Fe21  x 12     0                0.0031(3)
 Fe21  y 12     0               -0.00928(16)
 Fe21  z 12     0               -0.0127(4)
 Ti22  x  1     0               -0.0012(8)
 Ti22  y  1     0                0.1553(4)
 Ti22  z  1     0               -0.0618(5)
 Ti22  x  2     0                0
 Ti22  y  2     0                0
 Ti22  z  2     0                0
 Ti22  x  3     0                0
 Ti22  y  3     0                0
 Ti22  z  3     0                0
 Ti22  x  4     0                0
 Ti22  y  4     0                0
 Ti22  z  4     0                0
 Ti22  x  5     0                0
 Ti22  y  5     0                0
 Ti22  z  5     0                0
 Ti22  x  6     0               -0.0015(4)
 Ti22  y  6     0                0.0098(2)
 Ti22  z  6     0                0.0220(3)
 Ti22  x  7     0                0
 Ti22  y  7     0                0
 Ti22  z  7     0                0
 Ti22  x  8     0                0
 Ti22  y  8     0                0
 Ti22  z  8     0                0
 Ti22  x  9     0                0
 Ti22  y  9     0                0
 Ti22  z  9     0                0
 Ti22  x 10     0                0
 Ti22  y 10     0                0
 Ti22  z 10     0                0
 Ti22  x 11     0                0
 Ti22  y 11     0                0
 Ti22  z 11     0                0
 Ti22  x 12     0                0.0031(3)
 Ti22  y 12     0               -0.00928(16)
 Ti22  z 12     0               -0.0127(4)
 Fe22  x  1     0               -0.0012(8)
 Fe22  y  1     0                0.1553(4)
 Fe22  z  1     0               -0.0618(5)
 Fe22  x  2     0                0
 Fe22  y  2     0                0
 Fe22  z  2     0                0
 Fe22  x  3     0                0
 Fe22  y  3     0                0
 Fe22  z  3     0                0
 Fe22  x  4     0                0
 Fe22  y  4     0                0
 Fe22  z  4     0                0
 Fe22  x  5     0                0
 Fe22  y  5     0                0
 Fe22  z  5     0                0
 Fe22  x  6     0               -0.0015(4)
 Fe22  y  6     0                0.0098(2)
 Fe22  z  6     0                0.0220(3)
 Fe22  x  7     0                0
 Fe22  y  7     0                0
 Fe22  z  7     0                0
 Fe22  x  8     0                0
 Fe22  y  8     0                0
 Fe22  z  8     0                0
 Fe22  x  9     0                0
 Fe22  y  9     0                0
 Fe22  z  9     0                0
 Fe22  x 10     0                0
 Fe22  y 10     0                0
 Fe22  z 10     0                0
 Fe22  x 11     0                0
 Fe22  y 11     0                0
 Fe22  z 11     0                0
 Fe22  x 12     0                0.0031(3)
 Fe22  y 12     0               -0.00928(16)
 Fe22  z 12     0               -0.0127(4)
 Ti23  x  1     0               -0.0012(8)
 Ti23  y  1     0                0.1553(4)
 Ti23  z  1     0               -0.0618(5)
 Ti23  x  2     0                0
 Ti23  y  2     0                0
 Ti23  z  2     0                0
 Ti23  x  3     0                0
 Ti23  y  3     0                0
 Ti23  z  3     0                0
 Ti23  x  4     0                0
 Ti23  y  4     0                0
 Ti23  z  4     0                0
 Ti23  x  5     0                0
 Ti23  y  5     0                0
 Ti23  z  5     0                0
 Ti23  x  6     0               -0.0015(4)
 Ti23  y  6     0                0.0098(2)
 Ti23  z  6     0                0.0220(3)
 Ti23  x  7     0                0
 Ti23  y  7     0                0
 Ti23  z  7     0                0
 Ti23  x  8     0                0
 Ti23  y  8     0                0
 Ti23  z  8     0                0
 Ti23  x  9     0                0
 Ti23  y  9     0                0
 Ti23  z  9     0                0
 Ti23  x 10     0                0
 Ti23  y 10     0                0
 Ti23  z 10     0                0
 Ti23  x 11     0                0
 Ti23  y 11     0                0
 Ti23  z 11     0                0
 Ti23  x 12     0                0.0031(3)
 Ti23  y 12     0               -0.00928(16)
 Ti23  z 12     0               -0.0127(4)
 Fe23  x  1     0               -0.0012(8)
 Fe23  y  1     0                0.1553(4)
 Fe23  z  1     0               -0.0618(5)
 Fe23  x  2     0                0
 Fe23  y  2     0                0
 Fe23  z  2     0                0
 Fe23  x  3     0                0
 Fe23  y  3     0                0
 Fe23  z  3     0                0
 Fe23  x  4     0                0
 Fe23  y  4     0                0
 Fe23  z  4     0                0
 Fe23  x  5     0                0
 Fe23  y  5     0                0
 Fe23  z  5     0                0
 Fe23  x  6     0               -0.0015(4)
 Fe23  y  6     0                0.0098(2)
 Fe23  z  6     0                0.0220(3)
 Fe23  x  7     0                0
 Fe23  y  7     0                0
 Fe23  z  7     0                0
 Fe23  x  8     0                0
 Fe23  y  8     0                0
 Fe23  z  8     0                0
 Fe23  x  9     0                0
 Fe23  y  9     0                0
 Fe23  z  9     0                0
 Fe23  x 10     0                0
 Fe23  y 10     0                0
 Fe23  z 10     0                0
 Fe23  x 11     0                0
 Fe23  y 11     0                0
 Fe23  z 11     0                0
 Fe23  x 12     0                0.0031(3)
 Fe23  y 12     0               -0.00928(16)
 Fe23  z 12     0               -0.0127(4)

loop_
 _jana_atom_site_displace_crenel_ortho_atom_site_label
 _jana_atom_site_displace_crenel_ortho_axis
 _jana_atom_site_displace_crenel_ortho_id
 _jana_atom_site_displace_crenel_ortho_param_order
 _jana_atom_site_displace_crenel_ortho_param_coeff
 La1   x  1  1  0.00014(11)
 La1   y  1  1  0.03747(4)
 La1   z  1  1  0.00065(6)
 La1   x  1  2  0.00018(4)
 La1   y  1  2 -0.00063(4)
 La1   z  1  2  0.00053(5)
 O1    x  4  1 -0.0005(6)
 O1    y  4  1  0.0200(6)
 O1    z  4  1 -0.0109(6)
 O1    x  4  2  0.0004(4)
 O1    y  4  2  0.0084(5)
 O1    z  4  2  0.0042(6)
 O1    x  4  3  0.0013(8)
 O1    y  4  3 -0.0025(9)
 O1    z  4  3  0.0062(9)
 O1    x  4  4  0.0006(5)
 O1    y  4  4 -0.0061(6)
 O1    z  4  4  0.0002(7)
 O1    x  4  5 -0.0007(10)
 O1    y  4  5  0.0063(11)
 O1    z  4  5  0.0027(11)
 O1    x  4  6  0
 O1    y  4  6  0
 O1    z  4  6  0
 O2    x  5  1  0.0022(4)
 O2    y  5  1  0.0348(5)
 O2    z  5  1  0.0015(5)
 O2    x  5  2 -0.0077(4)
 O2    y  5  2 -0.0043(5)
 O2    z  5  2  0.0143(5)
 O2    x  5  3  0.0058(4)
 O2    y  5  3 -0.0043(6)
 O2    z  5  3 -0.0059(6)
 O2    x  5  4  0.0027(4)
 O2    y  5  4  0.0086(6)
 O2    z  5  4 -0.0040(6)
 O2    x  5  5 -0.0078(5)
 O2    y  5  5  0.0070(7)
 O2    z  5  5  0.0021(7)
 O2    x  5  6  0
 O2    y  5  6  0
 O2    z  5  6  0
 O3    x  6  1 -0.0016(4)
 O3    y  6  1  0.0362(5)
 O3    z  6  1  0.0014(5)
 O3    x  6  2  0.0064(4)
 O3    y  6  2  0.0024(5)
 O3    z  6  2  0.0162(5)
 O3    x  6  3 -0.0066(5)
 O3    y  6  3 -0.0010(6)
 O3    z  6  3 -0.0069(6)
 O3    x  6  4 -0.0021(4)
 O3    y  6  4  0.0046(6)
 O3    z  6  4 -0.0033(6)
 O3    x  6  5  0.0070(5)
 O3    y  6  5  0.0025(7)
 O3    z  6  5  0.0030(7)
 O3    x  6  6  0
 O3    y  6  6  0
 O3    z  6  6  0

loop_
 _jana_atom_site_U_crenel_ortho_atom_site_label
 _jana_atom_site_U_crenel_ortho_tens_elem
 _jana_atom_site_U_crenel_ortho_id
 _jana_atom_site_U_crenel_ortho_param_order
 _jana_atom_site_U_crenel_ortho_param_coeff
 La1   U11  1  1  0.00023(8)
 La1   U22  1  1  0.00008(6)
 La1   U33  1  1  0.00072(10)
 La1   U12  1  1  0.00015(11)
 La1   U13  1  1  0.00011(7)
 La1   U23  1  1  0.00031(10)
 La1   U11  1  2  0.00029(9)
 La1   U22  1  2  0.00088(7)
 La1   U33  1  2 -0.00061(10)
 La1   U12  1  2 -0.00014(11)
 La1   U13  1  2  0.00019(16)
 La1   U23  1  2  0.00010(8)
 La1   U11  1  3 -0.00020(11)
 La1   U22  1  3  0.00052(10)
 La1   U33  1  3 -0.00008(13)
 La1   U12  1  3 -0.00016(10)
 La1   U13  1  3 -0.00011(11)
 La1   U23  1  3 -0.00071(17)
 La1   U11  1  4  0
 La1   U22  1  4  0
 La1   U33  1  4  0
 La1   U12  1  4  0
 La1   U13  1  4  0
 La1   U23  1  4  0


#=======================================================================

# 10. MOLECULAR GEOMETRY


loop_
 _geom_bond_atom_site_label_1
 _geom_bond_atom_site_label_2
 _geom_bond_site_ssg_symmetry_1
 _geom_bond_site_ssg_symmetry_2
 _geom_bond_distance_av
 _geom_bond_distance_min
 _geom_bond_distance_max
 _geom_bond_publ_flag
  La1 Ti11 . 1_5545 3.442(3) 3.442(3) 3.442(3) ?
  La1 Ti11 . . 3.359(3) 3.359(3) 3.359(3) ?
  La1 Ti11 . 6_5445 3.322(2) 3.322(2) 3.322(2) ?
  La1 Fe11 . 1_5545 3.442(3) 3.442(3) 3.442(3) ?
  La1 Fe11 . . 3.359(3) 3.359(3) 3.359(3) ?
  La1 Fe11 . 6_5445 3.322(2) 3.322(2) 3.322(2) ?
  La1 Ti13 . 6_5445 3.3161(17) 3.3161(17) 3.3161(17) ?
  La1 Fe13 . 6_5445 3.3161(17) 3.3161(17) 3.3161(17) ?
  La1 Ti21 . 1_4545 3.428(3) 3.428(3) 3.428(3) ?
  La1 Ti21 . 1_4555 3.343(3) 3.343(3) 3.343(3) ?
  La1 Ti21 . 6_5445 3.333(2) 3.333(2) 3.333(2) ?
  La1 Fe21 . 1_4545 3.428(3) 3.428(3) 3.428(3) ?
  La1 Fe21 . 1_4555 3.343(3) 3.343(3) 3.343(3) ?
  La1 Fe21 . 6_5445 3.333(2) 3.333(2) 3.333(2) ?
  La1 Ti23 . 6_5445 3.3264(16) 3.3264(16) 3.3264(16) ?
  La1 Fe23 . 6_5445 3.3264(16) 3.3264(16) 3.3264(16) ?
  La1 O1 . 1_5545 2.45(5) 2.43(2) 2.47(8) ?
  La1 O1 . . 3.13(5) 3.13(2) 3.13(8) ?
  La1 O2 . . 2.47(2) 2.41(2) 2.52(2) ?
  La1 O2 . 6_5545 3.20(2) 3.15(2) 3.25(2) ?
  La1 O3 . 1_4555 2.45(2) 2.41(2) 2.49(2) ?
  La1 O3 . 6_5545 3.21(2) 3.18(2) 3.25(2) ?
  La1 Ti121 . 5_5555 3.463(4) 3.463(4) 3.463(4) ?
  La1 Ti121 . 5_5565 3.356(4) 3.356(4) 3.356(4) ?
  La1 Fe121 . 5_5555 3.463(4) 3.463(4) 3.463(4) ?
  La1 Fe121 . 5_5565 3.356(4) 3.356(4) 3.356(4) ?
  La1 Ti221 . 5_5555 3.422(4) 3.422(4) 3.422(4) ?
  La1 Ti221 . 5_5565 3.322(4) 3.322(4) 3.322(4) ?
  La1 Fe221 . 5_5555 3.422(4) 3.422(4) 3.422(4) ?
  La1 Fe221 . 5_5565 3.322(4) 3.322(4) 3.322(4) ?
  La1 O11 . 2_5455 2.87(5) 2.70(8) 3.04(2) ?
  La1 O11 . 2_5555 2.99(5) 2.58(2) 3.39(8) ?
  La1 O21 . 5_5555 2.739(11) 2.651(3) 2.83(2) ?
  La1 O21 . 2_5455 2.900(11) 2.882(3) 2.92(2) ?
  La1 O31 . 5_5555 2.677(11) 2.627(3) 2.73(2) ?
  La1 O31 . 2_4455 2.885(11) 2.87(2) 2.901(3) ?
  La2 Ti13 . 1_5545 3.3894(19) 3.3894(19) 3.3894(19) ?
  La2 Ti13 . 8_5645 3.3417(9) 3.3417(9) 3.3417(9) ?
  La2 Fe13 . 1_5545 3.3894(19) 3.3894(19) 3.3894(19) ?
  La2 Fe13 . 8_5645 3.3417(9) 3.3417(9) 3.3417(9) ?
  La2 Ti23 . 1_4545 3.3813(19) 3.3813(19) 3.3813(19) ?
  La2 Fe23 . 1_4545 3.3813(19) 3.3813(19) 3.3813(19) ?
  La2 O1 . 1_5545 2.55(8) 2.55(8) 2.55(8) ?
  La2 O2 . . 2.43(2) 2.43(2) 2.43(2) ?
  La2 O2 . 3_4555 2.48(2) 2.48(2) 2.48(2) ?
  La2 O2 . 6_5545 2.45(2) 2.45(2) 2.45(2) ?
  La2 O2 . 8_5645 2.54(2) 2.54(2) 2.54(2) ?
  La2 O3 . 1_4555 2.39(2) 2.39(2) 2.39(2) ?
  La2 O3 . 6_5545 2.45(2) 2.45(2) 2.45(2) ?
  La2 O21 . 5_5555 3.21(2) 3.21(2) 3.21(2) ?
  La2 O31 . 5_5555 3.229(19) 3.229(19) 3.229(19) ?
  Ti11 O1 . . 2.00(3) 2.00(3) 2.00(3) ?
  Ti11 O2 . . 1.94(2) 1.94(2) 1.94(2) ?
  Ti11 O2 . 6_5555 2.02(2) 2.02(2) 2.02(2) ?
  Ti11 La11 . 5_5555 3.378(3) 3.378(3) 3.378(3) ?
  Ti11 La11 . 5_5565 3.408(3) 3.408(3) 3.408(3) ?
  Ti11 La11 . 2_5555 3.343(2) 3.343(2) 3.343(2) ?
  Ti11 O11 . 5_5565 1.91(3) 1.91(3) 1.91(3) ?
  Ti11 O21 . 5_5565 1.930(3) 1.930(3) 1.930(3) ?
  Ti11 O21 . 2_5455 2.130(3) 2.130(3) 2.130(3) ?
  Fe11 O1 . . 2.00(3) 2.00(3) 2.00(3) ?
  Fe11 O2 . . 1.94(2) 1.94(2) 1.94(2) ?
  Fe11 O2 . 6_5555 2.02(2) 2.02(2) 2.02(2) ?
  Fe11 La11 . 5_5555 3.378(3) 3.378(3) 3.378(3) ?
  Fe11 La11 . 5_5565 3.408(3) 3.408(3) 3.408(3) ?
  Fe11 La11 . 2_5555 3.343(2) 3.343(2) 3.343(2) ?
  Fe11 O11 . 5_5565 1.91(3) 1.91(3) 1.91(3) ?
  Fe11 O21 . 5_5565 1.930(3) 1.930(3) 1.930(3) ?
  Fe11 O21 . 2_5455 2.130(3) 2.130(3) 2.130(3) ?
  Ti13 O1 . . 2.00(10) 2.00(10) 2.00(10) ?
  Ti13 O2 . . 1.83(2) 1.83(2) 1.83(2) ?
  Ti13 O2 . 6_5555 1.86(2) 1.86(2) 1.86(2) ?
  Ti13 La11 . 2_5455 3.4494(16) 3.4494(16) 3.4494(16) ?
  Ti13 O11 . 5_5565 1.98(10) 1.98(10) 1.98(10) ?
  Ti13 O21 . 5_5565 2.256(19) 2.256(19) 2.256(19) ?
  Ti13 O21 . 2_5455 1.687(19) 1.687(19) 1.687(19) ?
  Fe13 O1 . . 2.00(10) 2.00(10) 2.00(10) ?
  Fe13 O2 . . 1.83(2) 1.83(2) 1.83(2) ?
  Fe13 O2 . 6_5555 1.86(2) 1.86(2) 1.86(2) ?
  Fe13 La11 . 2_5455 3.4494(16) 3.4494(16) 3.4494(16) ?
  Fe13 O11 . 5_5565 1.98(10) 1.98(10) 1.98(10) ?
  Fe13 O21 . 5_5565 2.256(19) 2.256(19) 2.256(19) ?
  Fe13 O21 . 2_5455 1.687(19) 1.687(19) 1.687(19) ?
  Ti21 O1 . 1_6555 1.98(3) 1.98(3) 1.98(3) ?
  Ti21 O3 . . 1.94(2) 1.94(2) 1.94(2) ?
  Ti21 O3 . 6_6555 2.03(2) 2.03(2) 2.03(2) ?
  Ti21 La11 . 5_5555 3.386(3) 3.386(3) 3.386(3) ?
  Ti21 La11 . 5_5565 3.417(3) 3.417(3) 3.417(3) ?
  Ti21 La11 . 2_6455 3.489(2) 3.489(2) 3.489(2) ?
  Ti21 La11 . 2_6555 3.329(2) 3.329(2) 3.329(2) ?
  Ti21 O11 . 5_5565 2.08(3) 2.08(3) 2.08(3) ?
  Ti21 O31 . 5_6565 1.989(3) 1.989(3) 1.989(3) ?
  Ti21 O31 . 2_5455 2.076(3) 2.076(3) 2.076(3) ?
  Fe21 O1 . 1_6555 1.98(3) 1.98(3) 1.98(3) ?
  Fe21 O3 . . 1.94(2) 1.94(2) 1.94(2) ?
  Fe21 O3 . 6_6555 2.03(2) 2.03(2) 2.03(2) ?
  Fe21 La11 . 5_5555 3.386(3) 3.386(3) 3.386(3) ?
  Fe21 La11 . 5_5565 3.417(3) 3.417(3) 3.417(3) ?
  Fe21 La11 . 2_6455 3.489(2) 3.489(2) 3.489(2) ?
  Fe21 La11 . 2_6555 3.329(2) 3.329(2) 3.329(2) ?
  Fe21 O11 . 5_5565 2.08(3) 2.08(3) 2.08(3) ?
  Fe21 O31 . 5_6565 1.989(3) 1.989(3) 1.989(3) ?
  Fe21 O31 . 2_5455 2.076(3) 2.076(3) 2.076(3) ?
  Ti23 O1 . 1_6555 2.00(10) 2.00(10) 2.00(10) ?
  Ti23 O3 . . 1.76(2) 1.76(2) 1.76(2) ?
  Ti23 O3 . 6_6555 1.87(2) 1.87(2) 1.87(2) ?
  Ti23 La11 . 2_6455 3.4919(15) 3.4919(15) 3.4919(15) ?
  Ti23 La31 . 5_5555 3.4879(19) 3.4879(19) 3.4879(19) ?
  Ti23 La31 . 5_5565 3.4715(19) 3.4715(19) 3.4715(19) ?
  Ti23 O11 . 5_5565 1.99(10) 1.99(10) 1.99(10) ?
  Ti23 O31 . 5_6565 2.294(19) 2.294(19) 2.294(19) ?
  Ti23 O31 . 2_5455 1.857(19) 1.857(19) 1.857(19) ?
  Fe23 O1 . 1_6555 2.00(10) 2.00(10) 2.00(10) ?
  Fe23 O3 . . 1.76(2) 1.76(2) 1.76(2) ?
  Fe23 O3 . 6_6555 1.87(2) 1.87(2) 1.87(2) ?
  Fe23 La11 . 2_6455 3.4919(15) 3.4919(15) 3.4919(15) ?
  Fe23 La31 . 5_5555 3.4879(19) 3.4879(19) 3.4879(19) ?
  Fe23 La31 . 5_5565 3.4715(19) 3.4715(19) 3.4715(19) ?
  Fe23 O11 . 5_5565 1.99(10) 1.99(10) 1.99(10) ?
  Fe23 O31 . 5_6565 2.294(19) 2.294(19) 2.294(19) ?
  Fe23 O31 . 2_5455 1.857(19) 1.857(19) 1.857(19) ?
  O1 O2 . . 2.83(7) 2.74(9) 2.95(9) ?
  O1 O2 . 6_5555 2.79(8) 2.77(10) 2.80(3) ?
  O1 O3 . 1_4555 2.80(7) 2.71(9) 2.89(9) ?
  O1 O3 . 6_5555 2.78(8) 2.75(10) 2.82(3) ?
  O1 La11 . 2_5455 2.79(5) 2.61(8) 2.97(2) ?
  O1 La11 . 2_5555 2.58(5) 2.46(8) 2.70(2) ?
  O1 Ti121 . 5_5565 2.06(10) 2.06(10) 2.06(10) ?
  O1 Fe121 . 5_5565 2.06(10) 2.06(10) 2.06(10) ?
  O1 Ti221 . 5_5565 1.98(10) 1.98(10) 1.98(10) ?
  O1 Fe221 . 5_5565 1.98(10) 1.98(10) 1.98(10) ?
  O1 O11 . 2_5465 3.51(8) 2.79(11) 3.90(11) ?
  O1 O11 . 2_5565 3.34(8) 3.13(8) 3.56(8) ?
  O1 O21 . 5_5565 2.82(7) 2.62(10) 3.13(10) ?
  O1 O21 . 2_5455 2.78(7) 2.36(9) 3.04(9) ?
  O1 O31 . 5_5565 2.80(7) 2.67(10) 2.99(10) ?
  O1 O31 . 2_4455 2.77(7) 2.45(9) 2.97(9) ?
  O2 O2 . 3_4555 2.85(3) 2.85(3) 2.85(3) ?
  O2 O2 . 7_5455 2.85(3) 2.85(3) 2.85(3) ?
  O2 O2 . 6_5545 2.82(3) 2.73(3) 2.88(3) ?
  O2 O2 . 6_5555 2.82(3) 2.73(3) 2.88(3) ?
  O2 O3 . 1_4555 3.53(3) 3.39(3) 3.68(3) ?
  O2 O3 . 3_4555 2.94(3) 2.94(3) 2.94(3) ?
  O2 O3 . 7_4455 2.75(3) 2.75(3) 2.75(3) ?
  O2 La11 . 5_5555 2.76(2) 2.74(2) 2.78(2) ?
  O2 La11 . 2_5555 2.74(2) 2.71(2) 2.77(2) ?
  O2 La31 . 5_5555 2.50(2) 2.50(2) 2.50(2) ?
  O2 La31 . 2_5555 2.44(2) 2.44(2) 2.44(2) ?
  O2 Ti121 . 5_5565 2.01(2) 2.01(2) 2.01(2) ?
  O2 Ti121 . 2_5555 2.16(2) 2.16(2) 2.16(2) ?
  O2 Fe121 . 5_5565 2.01(2) 2.01(2) 2.01(2) ?
  O2 Fe121 . 2_5555 2.16(2) 2.16(2) 2.16(2) ?
  O2 O11 . 5_5565 2.79(8) 2.67(4) 2.87(10) ?
  O2 O11 . 2_5555 2.77(7) 2.47(10) 3.32(9) ?
  O2 O21 . 5_5555 3.34(3) 3.25(2) 3.51(3) ?
  O2 O21 . 2_5455 2.78(3) 2.61(3) 2.96(2) ?
  O2 O21 . 2_5555 2.78(3) 2.59(2) 3.02(3) ?
  O3 O3 . 3_4555 2.89(3) 2.89(3) 2.89(3) ?
  O3 O3 . 7_5455 2.89(3) 2.89(3) 2.89(3) ?
  O3 O3 . 6_6545 2.84(3) 2.72(3) 2.93(3) ?
  O3 O3 . 6_6555 2.84(3) 2.72(3) 2.93(3) ?
  O3 La11 . 5_5555 2.75(2) 2.72(2) 2.79(2) ?
  O3 La11 . 2_6555 2.74(2) 2.70(2) 2.78(2) ?
  O3 La31 . 3_5455 2.53(2) 2.53(2) 2.53(2) ?
  O3 La31 . 5_5555 2.46(2) 2.46(2) 2.46(2) ?
  O3 La31 . 2_6555 2.49(2) 2.49(2) 2.49(2) ?
  O3 La31 . 4_5655 3.08(2) 3.08(2) 3.08(2) ?
  O3 Ti221 . 5_6565 2.02(2) 2.02(2) 2.02(2) ?
  O3 Ti221 . 2_5555 2.188(19) 2.188(19) 2.188(19) ?
  O3 Fe221 . 5_6565 2.02(2) 2.02(2) 2.02(2) ?
  O3 Fe221 . 2_5555 2.188(19) 2.188(19) 2.188(19) ?
  O3 O11 . 5_5565 2.82(8) 2.78(4) 2.86(10) ?
  O3 O11 . 2_6555 2.81(7) 2.54(10) 3.30(9) ?
  O3 O31 . 5_6555 3.25(3) 3.14(3) 3.38(3) ?
  O3 O31 . 2_5455 2.79(3) 2.66(3) 2.932(19) ?
  O3 O31 . 2_5555 2.78(3) 2.63(2) 2.87(3) ?
  La11 Ti121 . . 3.414(4) 3.414(4) 3.414(4) ?
  La11 Ti121 . 1_5565 3.358(4) 3.358(4) 3.358(4) ?
  La11 Ti121 . 6_4555 3.413(3) 3.413(3) 3.413(3) ?
  La11 Fe121 . . 3.414(4) 3.414(4) 3.414(4) ?
  La11 Fe121 . 1_5565 3.358(4) 3.358(4) 3.358(4) ?
  La11 Fe121 . 6_4555 3.413(3) 3.413(3) 3.413(3) ?
  La11 Ti221 . 1_6555 3.442(4) 3.442(4) 3.442(4) ?
  La11 Ti221 . 1_6565 3.395(4) 3.395(4) 3.395(4) ?
  La11 Ti221 . 6_4555 3.393(3) 3.393(3) 3.393(3) ?
  La11 Fe221 . 1_6555 3.442(4) 3.442(4) 3.442(4) ?
  La11 Fe221 . 1_6565 3.395(4) 3.395(4) 3.395(4) ?
  La11 Fe221 . 6_4555 3.393(3) 3.393(3) 3.393(3) ?
  La11 O11 . . 3.27(5) 2.99(3) 3.55(8) ?
  La11 O11 . 1_5565 2.34(5) 2.09(8) 2.58(3) ?
  La11 O21 . . 2.375(11) 2.366(3) 2.39(2) ?
  La11 O21 . 6_4455 3.147(11) 2.98(2) 3.314(3) ?
  La11 O31 . 1_6555 2.335(11) 2.32(2) 2.355(3) ?
  La11 O31 . 6_4455 3.180(11) 3.05(2) 3.314(3) ?
  La31 O11 . . 2.67(8) 2.67(8) 2.67(8) ?
  La31 O11 . 1_5565 3.10(8) 3.10(8) 3.10(8) ?
  La31 O21 . . 3.06(2) 3.06(2) 3.06(2) ?
  La31 O31 . 1_6555 2.97(2) 2.97(2) 2.97(2) ?
  Ti121 O11 . . 2.11(10) 2.11(10) 2.11(10) ?
  Ti121 O21 . . 2.181(19) 2.181(19) 2.181(19) ?
  Ti121 O21 . 6_4445 1.765(19) 1.765(19) 1.765(19) ?
  Fe121 O11 . . 2.11(10) 2.11(10) 2.11(10) ?
  Fe121 O21 . . 2.181(19) 2.181(19) 2.181(19) ?
  Fe121 O21 . 6_4445 1.765(19) 1.765(19) 1.765(19) ?
  Ti221 O11 . 1_4555 2.11(10) 2.11(10) 2.11(10) ?
  Ti221 O31 . . 2.07(2) 2.07(2) 2.07(2) ?
  Ti221 O31 . 6_3445 1.748(19) 1.748(19) 1.748(19) ?
  Fe221 O11 . 1_4555 2.11(10) 2.11(10) 2.11(10) ?
  Fe221 O31 . . 2.07(2) 2.07(2) 2.07(2) ?
  Fe221 O31 . 6_3445 1.748(19) 1.748(19) 1.748(19) ?
  O11 O21 . . 2.94(7) 2.80(3) 3.10(9) ?
  O11 O21 . 6_4445 2.78(8) 2.25(10) 3.15(3) ?
  O11 O31 . 1_6555 2.95(7) 2.88(9) 3.04(9) ?
  O11 O31 . 6_4445 2.83(7) 2.28(10) 3.21(3) ?
  O21 O21 . 6_4445 2.835(19) 2.72(3) 2.915(4) ?
  O21 O21 . 6_4455 2.835(19) 2.72(3) 2.915(4) ?
  O21 O31 . 1_6555 3.54(2) 3.24(3) 3.92(3) ?
  O31 O31 . 6_3445 2.84(2) 2.76(3) 2.899(4) ?
  O31 O31 . 6_3455 2.84(2) 2.76(3) 2.899(4) ?

#=======================================================================
data_n6_140K
#=======================================================================

# 5. CHEMICAL DATA

_chemical_name_systematic
?
_chemical_name_common                    ?
_chemical_formula_moiety                 ?
_chemical_formula_structural             ?
_chemical_formula_analytical             ?
_chemical_formula_iupac                  ?
_chemical_formula_sum                    'Fe0.571 La3.429 O11.429 Ti2.858'
_chemical_formula_weight                 827.9
_chemical_melting_point                  ?
_chemical_compound_source                ?
_chemical_absolute_configuration         .

#=======================================================================

# 6. CRYSTAL DATA

_symmetry_cell_setting                   monoclinic
_space_group_ssg_name                    'X21/b(\a\b0)00'
loop_
 _space_group_symop_ssg_id
 _space_group_symop_ssg_operation_algebraic
 1   x1,x2,x3,x4
 2   -x1+1/4,-x2,x3+1/2,-x4+1/4
 3   -x1,-x2,-x3,-x4+1/2
 4   x1,x2+1/2,-x3+1/2,x4
 5   x1+3/4,x2+1/2,x3,x4+1/4
 6   -x1,-x2+1/2,x3+1/2,-x4+1/2
 7   -x1+3/4,-x2+1/2,-x3,-x4+3/4
 8   x1+3/4,x2,-x3+1/2,x4+1/4
 9   x1+1/2,x2,x3,x4+1/2
 10  -x1+3/4,-x2,x3+1/2,-x4+3/4
 11  -x1+1/2,-x2,-x3,-x4
 12  x1+1/2,x2+1/2,-x3+1/2,x4+1/2
 13  x1+1/4,x2+1/2,x3,x4+3/4
 14  -x1+1/2,-x2+1/2,x3+1/2,-x4
 15  -x1+1/4,-x2+1/2,-x3,-x4+1/4
 16  x1+1/4,x2,-x3+1/2,x4+3/4
_cell_length_a                           7.8248(18)
_cell_length_b                           5.2721(14)
_cell_length_c                           5.5483(16)
_cell_angle_alpha                        90
_cell_angle_beta                         90
_cell_angle_gamma                        90.007(17)
_cell_volume                             228.88(10)

loop_
 _jana_cell_twin_matrix_id
 _jana_cell_twin_volume_fraction
 _jana_cell_twin_matrix_1_1
 _jana_cell_twin_matrix_1_2
 _jana_cell_twin_matrix_1_3
 _jana_cell_twin_matrix_2_1
 _jana_cell_twin_matrix_2_2
 _jana_cell_twin_matrix_2_3
 _jana_cell_twin_matrix_3_1
 _jana_cell_twin_matrix_3_2
 _jana_cell_twin_matrix_3_3
1 0.5894(10)
1 0 0
0 1 0
0 0 1
2 0.4106(10)
1 0 0
0 -1 0
0 0 -1

_cell_modulation_dimension               1
loop_
 _cell_wave_vector_seq_id
 _cell_wave_vector_x
 _cell_wave_vector_y
 _cell_wave_vector_z
 1  0.000000  0.071429  0.000000

_jana_cell_commen_supercell_matrix_1_1   1
_jana_cell_commen_supercell_matrix_1_2   0
_jana_cell_commen_supercell_matrix_1_3   0
_jana_cell_commen_supercell_matrix_2_1   0
_jana_cell_commen_supercell_matrix_2_2   14
_jana_cell_commen_supercell_matrix_2_3   0
_jana_cell_commen_supercell_matrix_3_1   0
_jana_cell_commen_supercell_matrix_3_2   0
_jana_cell_commen_supercell_matrix_3_3   1

_jana_cell_commen_t_section_1            0.018

_cell_formula_units_Z                    1

_cell_measurement_reflns_used            0
_cell_measurement_theta_min              ?
_cell_measurement_theta_max              ?
_cell_measurement_temperature            140
_cell_special_details
?

_exptl_crystal_density_diffrn            6.0043
_exptl_crystal_density_meas              ?
_exptl_crystal_density_method            ?
_exptl_crystal_F_000                     367

_exptl_absorpt_coefficient_mu            18.936
_exptl_crystal_description               'thick plate'
_exptl_crystal_size_max                  0.012
_exptl_crystal_size_mid                  0.08
_exptl_crystal_size_min                  0.005
_exptl_crystal_size_rad                  ?
_exptl_crystal_colour                    'metallic gray'
_exptl_absorpt_correction_type           numerical
_exptl_absorpt_process_details           'SADABS (version(2008/1)'
_exptl_absorpt_correction_T_min          0.3379
_exptl_absorpt_correction_T_max          0.7477

#=======================================================================

# 7. EXPERIMENTAL DATA

_exptl_special_details                   ?

_diffrn_ambient_temperature              140
_diffrn_source                           ?
_diffrn_source_power                     ?
_diffrn_source_voltage                   55
_diffrn_source_current                   75
_diffrn_radiation_type                   'Mo K\a'
_diffrn_radiation_source                 'rotating anode X-ray tube'
_diffrn_radiation_wavelength             0.71069
_diffrn_radiation_monochromator          graphite
_diffrn_measurement_device               'Image-Plate diffractometer'
_diffrn_measurement_device_type          'MarResearch Mar345dtb'
_diffrn_detector                         'MarResearch Mar345'
_diffrn_detector_area_resol_mean         ?
_diffrn_measurement_method               'Rotating, \f scans'
_diffrn_measurement_specimen_support     ?

_diffrn_reflns_number                    55250
_diffrn_reflns_theta_min                 2.21
_diffrn_reflns_theta_max                 39.32
_diffrn_reflns_theta_full                34.11
_diffrn_measured_fraction_theta_max      0.88
_diffrn_measured_fraction_theta_full     0.98
_diffrn_reflns_av_R_equivalents          0.0478
_diffrn_reflns_av_sigmaI/netI            0.038
_diffrn_reflns_limit_h_min               -12
_diffrn_reflns_limit_h_max               12
_diffrn_reflns_limit_k_min               -9
_diffrn_reflns_limit_k_max               9
_diffrn_reflns_limit_l_min               -8
_diffrn_reflns_limit_l_max               8
_diffrn_reflns_limit_index_m_1_min       -7
_diffrn_reflns_limit_index_m_1_max       7
_diffrn_reflns_reduction_process         ?

_diffrn_standards_number                 0
_diffrn_standards_interval_count         ?
_diffrn_standards_interval_time          ?
_diffrn_standards_decay_%                ?
loop_
_diffrn_standard_refln_index_h
_diffrn_standard_refln_index_k
_diffrn_standard_refln_index_l
  ? ? ?

_diffrn_radiation_probe                  x-ray

#=======================================================================

# 8. REFINEMENT DATA

_refine_special_details
?

_reflns_number_total                     12312
_reflns_number_gt                        11441
_reflns_threshold_expression             'I>3\s(I)'

_refine_ls_structure_factor_coef         F
_refine_ls_R_factor_gt                   0.0622
_refine_ls_wR_factor_gt                  0.0833
_refine_ls_R_factor_all                  0.0672
_refine_ls_wR_factor_ref                 0.0841
_refine_ls_goodness_of_fit_ref           3.22
_refine_ls_goodness_of_fit_gt            3.31
_refine_ls_restrained_S_gt               ?
_refine_ls_restrained_S_all              ?
_refine_ls_number_reflns                 12312
_refine_ls_number_parameters             161
_refine_ls_number_restraints             0
_refine_ls_number_constraints            8
_refine_ls_weighting_scheme              sigma
_refine_ls_weighting_details             'w=1/(\s^2^(F)+0.0001F^2^)'
_refine_ls_hydrogen_treatment            ?
_refine_ls_shift/su_max                  0.0019
_refine_ls_shift/su_mean                 0.0004
_refine_diff_density_max                 17.47
_refine_diff_density_min                 -4.75
_refine_ls_extinction_method             'none'
_refine_ls_extinction_coef               ?
_refine_ls_abs_structure_details         ?
_refine_ls_abs_structure_Flack           ?
_refine_ls_abs_structure_Rogers          ?

loop_
 _atom_type_symbol
 _atom_type_scat_dispersion_real
 _atom_type_scat_dispersion_imag
 _atom_type_scat_source
 Fe  0.3463  0.8444
 'International Tables Vol C tables 4.2.6.8 and 6.1.1.1'
 La -0.2871  2.4523
 'International Tables Vol C tables 4.2.6.8 and 6.1.1.1'
 O   0.0106  0.0060
 'International Tables Vol C tables 4.2.6.8 and 6.1.1.1'
 Ti  0.2776  0.4457
 'International Tables Vol C tables 4.2.6.8 and 6.1.1.1'

_computing_data_collection               ?
_computing_cell_refinement               ?
_computing_data_reduction                ?
_computing_structure_solution            ?
_computing_structure_refinement          ?
_computing_molecular_graphics            ?
_computing_publication_material          ?

#=======================================================================

# 9. ATOMIC COORDINATES AND DISPLACEMENT PARAMETERS

loop_
 _atom_site_label
 _atom_site_type_symbol
 _atom_site_fract_x
 _atom_site_fract_y
 _atom_site_fract_z
 _atom_site_adp_type
 _atom_site_U_iso_or_equiv
 _atom_site_symmetry_multiplicity
 _atom_site_occupancy
 _atom_site_calc_flag
 _atom_site_refinement_flags
 _atom_site_disorder_assembly
 _atom_site_disorder_group
  La1 La -0.00029(3) -0.01871(4) 0.00286(4) Uani 0.00583(6) 16 0.1429 d . . .
  La2 La -0.00156(9) 0.29784(8) -0.09002(14) Uani 0.00629(9) 16 0.0357 d . . .
  La3 La -0.00288(9) -0.23013(10) 0.04607(14) Uani 0.01018(11) 16 0.0357 d . . .
  Ti11 Ti 0.25 0 0.5 Uani 0.0045(2) 8 0.025(2) d . . .
  Fe11 Fe 0.25 0 0.5 Uani 0.0045(2) 8 0.046(2) d . . .
  Ti12 Ti 0.25 0 0.5 Uani 0.0045(2) 16 0.0269(11) d . . .
  Fe12 Fe 0.25 0 0.5 Uani 0.0045(2) 16 0.0088(11) d . . .
  Ti13 Ti 0.25 0 0.5 Uani 0.0045(2) 16 0.0335(10) d . . .
  Fe13 Fe 0.25 0 0.5 Uani 0.0045(2) 16 0.0022(10) d . . .
  Ti21 Ti 0.75 0 0.5 Uani 0.00406(19) 8 0.027(2) d . . .
  Fe21 Fe 0.75 0 0.5 Uani 0.00406(19) 8 0.045(2) d . . .
  Ti22 Ti 0.75 0 0.5 Uani 0.00406(19) 16 0.0270(11) d . . .
  Fe22 Fe 0.75 0 0.5 Uani 0.00406(19) 16 0.0088(11) d . . .
  Ti23 Ti 0.75 0 0.5 Uani 0.00406(19) 16 0.0330(10) d . . .
  Fe23 Fe 0.75 0 0.5 Uani 0.00406(19) 16 0.0027(10) d . . .
  O1 O -0.0003(3) 0.0070(4) 0.5588(5) Uani 0.0073(5) 16 0.2143 d . . .
  O2 O 0.2243(3) 0.2138(5) 0.2095(4) Uani 0.0077(6) 16 0.25 d . . .
  O3 O 0.7770(3) 0.2077(5) 0.2055(4) Uani 0.0077(5) 16 0.25 d . . .

loop_
 _atom_site_aniso_label
 _atom_site_aniso_type_symbol
 _atom_site_aniso_U_11
 _atom_site_aniso_U_22
 _atom_site_aniso_U_33
 _atom_site_aniso_U_12
 _atom_site_aniso_U_13
 _atom_site_aniso_U_23
 La1 La 0.00293(10) 0.00964(8) 0.00491(13) 0.00026(9) 0.00003(12) -0.00109(6)
 La2 La 0.00216(13) 0.01221(15) 0.00451(19) -0.00052(18) -0.00087(17)
 -0.00120(13)
 La3 La 0.00236(15) 0.01867(18) 0.0095(2) 0.0001(2) -0.00026(19) -0.00483(15)
 Ti11 Ti 0.0034(3) 0.0075(3) 0.0028(4) -0.0028(5) -0.0011(5) 0.0000(2)
 Fe11 Fe 0.0034(3) 0.0075(3) 0.0028(4) -0.0028(5) -0.0011(5) 0.0000(2)
 Ti12 Ti 0.0034(3) 0.0075(3) 0.0028(4) -0.0028(5) -0.0011(5) 0.0000(2)
 Fe12 Fe 0.0034(3) 0.0075(3) 0.0028(4) -0.0028(5) -0.0011(5) 0.0000(2)
 Ti13 Ti 0.0034(3) 0.0075(3) 0.0028(4) -0.0028(5) -0.0011(5) 0.0000(2)
 Fe13 Fe 0.0034(3) 0.0075(3) 0.0028(4) -0.0028(5) -0.0011(5) 0.0000(2)
 Ti21 Ti 0.0032(3) 0.0069(3) 0.0021(4) -0.0027(4) -0.0010(5) 0.0004(2)
 Fe21 Fe 0.0032(3) 0.0069(3) 0.0021(4) -0.0027(4) -0.0010(5) 0.0004(2)
 Ti22 Ti 0.0032(3) 0.0069(3) 0.0021(4) -0.0027(4) -0.0010(5) 0.0004(2)
 Fe22 Fe 0.0032(3) 0.0069(3) 0.0021(4) -0.0027(4) -0.0010(5) 0.0004(2)
 Ti23 Ti 0.0032(3) 0.0069(3) 0.0021(4) -0.0027(4) -0.0010(5) 0.0004(2)
 Fe23 Fe 0.0032(3) 0.0069(3) 0.0021(4) -0.0027(4) -0.0010(5) 0.0004(2)
 O1 O 0.0002(8) 0.0145(8) 0.0073(11) 0.0008(8) 0.0000(6) -0.0003(7)
 O2 O 0.0064(11) 0.0132(9) 0.0035(9) -0.0003(7) -0.0002(7) 0.0018(7)
 O3 O 0.0054(10) 0.0129(8) 0.0049(10) 0.0004(7) 0.0006(7) 0.0011(7)


loop_
 _atom_site_Fourier_wave_vector_seq_id
 _jana_atom_site_Fourier_wave_vector_q1_coeff
    1    1
    2    2
    3    3
    4    4
    5    5
    6    6
    7    7
    8    8
    9    9
   10   10
   11   11
   12   12

loop_
 _jana_atom_site_crenel_ortho_func_id
 _jana_atom_site_crenel_ortho_func_c
 _jana_atom_site_crenel_ortho_func_w
 _jana_atom_site_crenel_ortho_func_eps
 1  0.000000  0.142857  0.950000
 2  0.110566  0.035714  0.950000
 3 -0.105731  0.035714  0.950000
 4  0.000000  0.214286  0.950000
 5  0.000000  0.250000  0.950000
 6  0.000000  0.250000  0.950000

loop_
 _atom_site_occ_special_func_atom_site_label
 _atom_site_occ_special_func_crenel_c
 _atom_site_occ_special_func_crenel_w
 La1  0  0.1429
 La2  0.110566(6)  0.0357
 La3 -0.105731(7)  0.0357
 Ti11  0  0.0714
 Fe11  0  0.0714
 Ti12  0.0536  0.0357
 Fe12  0.0536  0.0357
 Ti13  0.0893  0.0357
 Fe13  0.0893  0.0357
 Ti21  0  0.0714
 Fe21  0  0.0714
 Ti22  0.0536  0.0357
 Fe22  0.0536  0.0357
 Ti23  0.0893  0.0357
 Fe23  0.0893  0.0357
 O1  0  0.2143
 O2  0  0.25
 O3  0  0.25

loop_
 _atom_site_displace_Fourier_atom_site_label
 _atom_site_displace_Fourier_axis
 _atom_site_displace_Fourier_wave_vector_seq_id
 _atom_site_displace_Fourier_param_cos
 _atom_site_displace_Fourier_param_sin
 Ti11  x  1     0               -0.0080(7)
 Ti11  y  1     0                0.1427(4)
 Ti11  z  1     0               -0.0589(5)
 Ti11  x  2     0                0
 Ti11  y  2     0                0
 Ti11  z  2     0                0
 Ti11  x  3     0                0
 Ti11  y  3     0                0
 Ti11  z  3     0                0
 Ti11  x  4     0                0
 Ti11  y  4     0                0
 Ti11  z  4     0                0
 Ti11  x  5     0                0
 Ti11  y  5     0                0
 Ti11  z  5     0                0
 Ti11  x  6     0                0.0005(3)
 Ti11  y  6     0                0.0113(2)
 Ti11  z  6     0                0.0219(2)
 Ti11  x  7     0                0
 Ti11  y  7     0                0
 Ti11  z  7     0                0
 Ti11  x  8     0                0
 Ti11  y  8     0                0
 Ti11  z  8     0                0
 Ti11  x  9     0                0
 Ti11  y  9     0                0
 Ti11  z  9     0                0
 Ti11  x 10     0                0
 Ti11  y 10     0                0
 Ti11  z 10     0                0
 Ti11  x 11     0                0
 Ti11  y 11     0                0
 Ti11  z 11     0                0
 Ti11  x 12     0                0.0018(2)
 Ti11  y 12     0               -0.00830(16)
 Ti11  z 12     0               -0.0121(4)
 Fe11  x  1     0               -0.0080(7)
 Fe11  y  1     0                0.1427(4)
 Fe11  z  1     0               -0.0589(5)
 Fe11  x  2     0                0
 Fe11  y  2     0                0
 Fe11  z  2     0                0
 Fe11  x  3     0                0
 Fe11  y  3     0                0
 Fe11  z  3     0                0
 Fe11  x  4     0                0
 Fe11  y  4     0                0
 Fe11  z  4     0                0
 Fe11  x  5     0                0
 Fe11  y  5     0                0
 Fe11  z  5     0                0
 Fe11  x  6     0                0.0005(3)
 Fe11  y  6     0                0.0113(2)
 Fe11  z  6     0                0.0219(2)
 Fe11  x  7     0                0
 Fe11  y  7     0                0
 Fe11  z  7     0                0
 Fe11  x  8     0                0
 Fe11  y  8     0                0
 Fe11  z  8     0                0
 Fe11  x  9     0                0
 Fe11  y  9     0                0
 Fe11  z  9     0                0
 Fe11  x 10     0                0
 Fe11  y 10     0                0
 Fe11  z 10     0                0
 Fe11  x 11     0                0
 Fe11  y 11     0                0
 Fe11  z 11     0                0
 Fe11  x 12     0                0.0018(2)
 Fe11  y 12     0               -0.00830(16)
 Fe11  z 12     0               -0.0121(4)
 Ti12  x  1     0               -0.0080(7)
 Ti12  y  1     0                0.1427(4)
 Ti12  z  1     0               -0.0589(5)
 Ti12  x  2     0                0
 Ti12  y  2     0                0
 Ti12  z  2     0                0
 Ti12  x  3     0                0
 Ti12  y  3     0                0
 Ti12  z  3     0                0
 Ti12  x  4     0                0
 Ti12  y  4     0                0
 Ti12  z  4     0                0
 Ti12  x  5     0                0
 Ti12  y  5     0                0
 Ti12  z  5     0                0
 Ti12  x  6     0                0.0005(3)
 Ti12  y  6     0                0.0113(2)
 Ti12  z  6     0                0.0219(2)
 Ti12  x  7     0                0
 Ti12  y  7     0                0
 Ti12  z  7     0                0
 Ti12  x  8     0                0
 Ti12  y  8     0                0
 Ti12  z  8     0                0
 Ti12  x  9     0                0
 Ti12  y  9     0                0
 Ti12  z  9     0                0
 Ti12  x 10     0                0
 Ti12  y 10     0                0
 Ti12  z 10     0                0
 Ti12  x 11     0                0
 Ti12  y 11     0                0
 Ti12  z 11     0                0
 Ti12  x 12     0                0.0018(2)
 Ti12  y 12     0               -0.00830(16)
 Ti12  z 12     0               -0.0121(4)
 Fe12  x  1     0               -0.0080(7)
 Fe12  y  1     0                0.1427(4)
 Fe12  z  1     0               -0.0589(5)
 Fe12  x  2     0                0
 Fe12  y  2     0                0
 Fe12  z  2     0                0
 Fe12  x  3     0                0
 Fe12  y  3     0                0
 Fe12  z  3     0                0
 Fe12  x  4     0                0
 Fe12  y  4     0                0
 Fe12  z  4     0                0
 Fe12  x  5     0                0
 Fe12  y  5     0                0
 Fe12  z  5     0                0
 Fe12  x  6     0                0.0005(3)
 Fe12  y  6     0                0.0113(2)
 Fe12  z  6     0                0.0219(2)
 Fe12  x  7     0                0
 Fe12  y  7     0                0
 Fe12  z  7     0                0
 Fe12  x  8     0                0
 Fe12  y  8     0                0
 Fe12  z  8     0                0
 Fe12  x  9     0                0
 Fe12  y  9     0                0
 Fe12  z  9     0                0
 Fe12  x 10     0                0
 Fe12  y 10     0                0
 Fe12  z 10     0                0
 Fe12  x 11     0                0
 Fe12  y 11     0                0
 Fe12  z 11     0                0
 Fe12  x 12     0                0.0018(2)
 Fe12  y 12     0               -0.00830(16)
 Fe12  z 12     0               -0.0121(4)
 Ti13  x  1     0               -0.0080(7)
 Ti13  y  1     0                0.1427(4)
 Ti13  z  1     0               -0.0589(5)
 Ti13  x  2     0                0
 Ti13  y  2     0                0
 Ti13  z  2     0                0
 Ti13  x  3     0                0
 Ti13  y  3     0                0
 Ti13  z  3     0                0
 Ti13  x  4     0                0
 Ti13  y  4     0                0
 Ti13  z  4     0                0
 Ti13  x  5     0                0
 Ti13  y  5     0                0
 Ti13  z  5     0                0
 Ti13  x  6     0                0.0005(3)
 Ti13  y  6     0                0.0113(2)
 Ti13  z  6     0                0.0219(2)
 Ti13  x  7     0                0
 Ti13  y  7     0                0
 Ti13  z  7     0                0
 Ti13  x  8     0                0
 Ti13  y  8     0                0
 Ti13  z  8     0                0
 Ti13  x  9     0                0
 Ti13  y  9     0                0
 Ti13  z  9     0                0
 Ti13  x 10     0                0
 Ti13  y 10     0                0
 Ti13  z 10     0                0
 Ti13  x 11     0                0
 Ti13  y 11     0                0
 Ti13  z 11     0                0
 Ti13  x 12     0                0.0018(2)
 Ti13  y 12     0               -0.00830(16)
 Ti13  z 12     0               -0.0121(4)
 Fe13  x  1     0               -0.0080(7)
 Fe13  y  1     0                0.1427(4)
 Fe13  z  1     0               -0.0589(5)
 Fe13  x  2     0                0
 Fe13  y  2     0                0
 Fe13  z  2     0                0
 Fe13  x  3     0                0
 Fe13  y  3     0                0
 Fe13  z  3     0                0
 Fe13  x  4     0                0
 Fe13  y  4     0                0
 Fe13  z  4     0                0
 Fe13  x  5     0                0
 Fe13  y  5     0                0
 Fe13  z  5     0                0
 Fe13  x  6     0                0.0005(3)
 Fe13  y  6     0                0.0113(2)
 Fe13  z  6     0                0.0219(2)
 Fe13  x  7     0                0
 Fe13  y  7     0                0
 Fe13  z  7     0                0
 Fe13  x  8     0                0
 Fe13  y  8     0                0
 Fe13  z  8     0                0
 Fe13  x  9     0                0
 Fe13  y  9     0                0
 Fe13  z  9     0                0
 Fe13  x 10     0                0
 Fe13  y 10     0                0
 Fe13  z 10     0                0
 Fe13  x 11     0                0
 Fe13  y 11     0                0
 Fe13  z 11     0                0
 Fe13  x 12     0                0.0018(2)
 Fe13  y 12     0               -0.00830(16)
 Fe13  z 12     0               -0.0121(4)
 Ti21  x  1     0               -0.0019(7)
 Ti21  y  1     0                0.1560(4)
 Ti21  z  1     0               -0.0630(5)
 Ti21  x  2     0                0
 Ti21  y  2     0                0
 Ti21  z  2     0                0
 Ti21  x  3     0                0
 Ti21  y  3     0                0
 Ti21  z  3     0                0
 Ti21  x  4     0                0
 Ti21  y  4     0                0
 Ti21  z  4     0                0
 Ti21  x  5     0                0
 Ti21  y  5     0                0
 Ti21  z  5     0                0
 Ti21  x  6     0               -0.0019(3)
 Ti21  y  6     0                0.0099(2)
 Ti21  z  6     0                0.0219(2)
 Ti21  x  7     0                0
 Ti21  y  7     0                0
 Ti21  z  7     0                0
 Ti21  x  8     0                0
 Ti21  y  8     0                0
 Ti21  z  8     0                0
 Ti21  x  9     0                0
 Ti21  y  9     0                0
 Ti21  z  9     0                0
 Ti21  x 10     0                0
 Ti21  y 10     0                0
 Ti21  z 10     0                0
 Ti21  x 11     0                0
 Ti21  y 11     0                0
 Ti21  z 11     0                0
 Ti21  x 12     0                0.0035(2)
 Ti21  y 12     0               -0.00903(15)
 Ti21  z 12     0               -0.0116(4)
 Fe21  x  1     0               -0.0019(7)
 Fe21  y  1     0                0.1560(4)
 Fe21  z  1     0               -0.0630(5)
 Fe21  x  2     0                0
 Fe21  y  2     0                0
 Fe21  z  2     0                0
 Fe21  x  3     0                0
 Fe21  y  3     0                0
 Fe21  z  3     0                0
 Fe21  x  4     0                0
 Fe21  y  4     0                0
 Fe21  z  4     0                0
 Fe21  x  5     0                0
 Fe21  y  5     0                0
 Fe21  z  5     0                0
 Fe21  x  6     0               -0.0019(3)
 Fe21  y  6     0                0.0099(2)
 Fe21  z  6     0                0.0219(2)
 Fe21  x  7     0                0
 Fe21  y  7     0                0
 Fe21  z  7     0                0
 Fe21  x  8     0                0
 Fe21  y  8     0                0
 Fe21  z  8     0                0
 Fe21  x  9     0                0
 Fe21  y  9     0                0
 Fe21  z  9     0                0
 Fe21  x 10     0                0
 Fe21  y 10     0                0
 Fe21  z 10     0                0
 Fe21  x 11     0                0
 Fe21  y 11     0                0
 Fe21  z 11     0                0
 Fe21  x 12     0                0.0035(2)
 Fe21  y 12     0               -0.00903(15)
 Fe21  z 12     0               -0.0116(4)
 Ti22  x  1     0               -0.0019(7)
 Ti22  y  1     0                0.1560(4)
 Ti22  z  1     0               -0.0630(5)
 Ti22  x  2     0                0
 Ti22  y  2     0                0
 Ti22  z  2     0                0
 Ti22  x  3     0                0
 Ti22  y  3     0                0
 Ti22  z  3     0                0
 Ti22  x  4     0                0
 Ti22  y  4     0                0
 Ti22  z  4     0                0
 Ti22  x  5     0                0
 Ti22  y  5     0                0
 Ti22  z  5     0                0
 Ti22  x  6     0               -0.0019(3)
 Ti22  y  6     0                0.0099(2)
 Ti22  z  6     0                0.0219(2)
 Ti22  x  7     0                0
 Ti22  y  7     0                0
 Ti22  z  7     0                0
 Ti22  x  8     0                0
 Ti22  y  8     0                0
 Ti22  z  8     0                0
 Ti22  x  9     0                0
 Ti22  y  9     0                0
 Ti22  z  9     0                0
 Ti22  x 10     0                0
 Ti22  y 10     0                0
 Ti22  z 10     0                0
 Ti22  x 11     0                0
 Ti22  y 11     0                0
 Ti22  z 11     0                0
 Ti22  x 12     0                0.0035(2)
 Ti22  y 12     0               -0.00903(15)
 Ti22  z 12     0               -0.0116(4)
 Fe22  x  1     0               -0.0019(7)
 Fe22  y  1     0                0.1560(4)
 Fe22  z  1     0               -0.0630(5)
 Fe22  x  2     0                0
 Fe22  y  2     0                0
 Fe22  z  2     0                0
 Fe22  x  3     0                0
 Fe22  y  3     0                0
 Fe22  z  3     0                0
 Fe22  x  4     0                0
 Fe22  y  4     0                0
 Fe22  z  4     0                0
 Fe22  x  5     0                0
 Fe22  y  5     0                0
 Fe22  z  5     0                0
 Fe22  x  6     0               -0.0019(3)
 Fe22  y  6     0                0.0099(2)
 Fe22  z  6     0                0.0219(2)
 Fe22  x  7     0                0
 Fe22  y  7     0                0
 Fe22  z  7     0                0
 Fe22  x  8     0                0
 Fe22  y  8     0                0
 Fe22  z  8     0                0
 Fe22  x  9     0                0
 Fe22  y  9     0                0
 Fe22  z  9     0                0
 Fe22  x 10     0                0
 Fe22  y 10     0                0
 Fe22  z 10     0                0
 Fe22  x 11     0                0
 Fe22  y 11     0                0
 Fe22  z 11     0                0
 Fe22  x 12     0                0.0035(2)
 Fe22  y 12     0               -0.00903(15)
 Fe22  z 12     0               -0.0116(4)
 Ti23  x  1     0               -0.0019(7)
 Ti23  y  1     0                0.1560(4)
 Ti23  z  1     0               -0.0630(5)
 Ti23  x  2     0                0
 Ti23  y  2     0                0
 Ti23  z  2     0                0
 Ti23  x  3     0                0
 Ti23  y  3     0                0
 Ti23  z  3     0                0
 Ti23  x  4     0                0
 Ti23  y  4     0                0
 Ti23  z  4     0                0
 Ti23  x  5     0                0
 Ti23  y  5     0                0
 Ti23  z  5     0                0
 Ti23  x  6     0               -0.0019(3)
 Ti23  y  6     0                0.0099(2)
 Ti23  z  6     0                0.0219(2)
 Ti23  x  7     0                0
 Ti23  y  7     0                0
 Ti23  z  7     0                0
 Ti23  x  8     0                0
 Ti23  y  8     0                0
 Ti23  z  8     0                0
 Ti23  x  9     0                0
 Ti23  y  9     0                0
 Ti23  z  9     0                0
 Ti23  x 10     0                0
 Ti23  y 10     0                0
 Ti23  z 10     0                0
 Ti23  x 11     0                0
 Ti23  y 11     0                0
 Ti23  z 11     0                0
 Ti23  x 12     0                0.0035(2)
 Ti23  y 12     0               -0.00903(15)
 Ti23  z 12     0               -0.0116(4)
 Fe23  x  1     0               -0.0019(7)
 Fe23  y  1     0                0.1560(4)
 Fe23  z  1     0               -0.0630(5)
 Fe23  x  2     0                0
 Fe23  y  2     0                0
 Fe23  z  2     0                0
 Fe23  x  3     0                0
 Fe23  y  3     0                0
 Fe23  z  3     0                0
 Fe23  x  4     0                0
 Fe23  y  4     0                0
 Fe23  z  4     0                0
 Fe23  x  5     0                0
 Fe23  y  5     0                0
 Fe23  z  5     0                0
 Fe23  x  6     0               -0.0019(3)
 Fe23  y  6     0                0.0099(2)
 Fe23  z  6     0                0.0219(2)
 Fe23  x  7     0                0
 Fe23  y  7     0                0
 Fe23  z  7     0                0
 Fe23  x  8     0                0
 Fe23  y  8     0                0
 Fe23  z  8     0                0
 Fe23  x  9     0                0
 Fe23  y  9     0                0
 Fe23  z  9     0                0
 Fe23  x 10     0                0
 Fe23  y 10     0                0
 Fe23  z 10     0                0
 Fe23  x 11     0                0
 Fe23  y 11     0                0
 Fe23  z 11     0                0
 Fe23  x 12     0                0.0035(2)
 Fe23  y 12     0               -0.00903(15)
 Fe23  z 12     0               -0.0116(4)


loop_
 _jana_atom_site_displace_crenel_ortho_atom_site_label
 _jana_atom_site_displace_crenel_ortho_axis
 _jana_atom_site_displace_crenel_ortho_id
 _jana_atom_site_displace_crenel_ortho_param_order
 _jana_atom_site_displace_crenel_ortho_param_coeff
 La1   x  1  1  0.00013(9)
 La1   y  1  1  0.03771(4)
 La1   z  1  1  0.00063(5)
 La1   x  1  2  0.00016(3)
 La1   y  1  2 -0.00065(4)
 La1   z  1  2  0.00059(4)
 O1    x  4  1 -0.0005(5)
 O1    y  4  1  0.0206(6)
 O1    z  4  1 -0.0100(5)
 O1    x  4  2  0.0001(3)
 O1    y  4  2  0.0091(5)
 O1    z  4  2  0.0039(6)
 O1    x  4  3  0.0011(6)
 O1    y  4  3 -0.0044(8)
 O1    z  4  3  0.0060(8)
 O1    x  4  4  0.0008(4)
 O1    y  4  4 -0.0061(6)
 O1    z  4  4  0.0001(6)
 O1    x  4  5 -0.0013(8)
 O1    y  4  5  0.0087(10)
 O1    z  4  5  0.0031(10)
 O1    x  4  6  0
 O1    y  4  6  0
 O1    z  4  6  0
 O2    x  5  1  0.0022(3)
 O2    y  5  1  0.0343(5)
 O2    z  5  1  0.0013(4)
 O2    x  5  2 -0.0083(3)
 O2    y  5  2 -0.0042(5)
 O2    z  5  2  0.0140(5)
 O2    x  5  3  0.0058(4)
 O2    y  5  3 -0.0051(5)
 O2    z  5  3 -0.0069(5)
 O2    x  5  4  0.0031(3)
 O2    y  5  4  0.0082(6)
 O2    z  5  4 -0.0032(5)
 O2    x  5  5 -0.0075(4)
 O2    y  5  5  0.0066(7)
 O2    z  5  5  0.0032(6)
 O2    x  5  6  0
 O2    y  5  6  0
 O2    z  5  6  0
 O3    x  6  1 -0.0023(3)
 O3    y  6  1  0.0366(5)
 O3    z  6  1  0.0005(5)
 O3    x  6  2  0.0064(3)
 O3    y  6  2  0.0028(5)
 O3    z  6  2  0.0158(5)
 O3    x  6  3 -0.0064(4)
 O3    y  6  3 -0.0011(5)
 O3    z  6  3 -0.0069(5)
 O3    x  6  4 -0.0013(3)
 O3    y  6  4  0.0046(6)
 O3    z  6  4 -0.0032(5)
 O3    x  6  5  0.0065(4)
 O3    y  6  5  0.0027(7)
 O3    z  6  5  0.0035(6)
 O3    x  6  6  0
 O3    y  6  6  0
 O3    z  6  6  0

loop_
 _jana_atom_site_U_crenel_ortho_atom_site_label
 _jana_atom_site_U_crenel_ortho_tens_elem
 _jana_atom_site_U_crenel_ortho_id
 _jana_atom_site_U_crenel_ortho_param_order
 _jana_atom_site_U_crenel_ortho_param_coeff
 La1   U11  1  1  0.00032(6)
 La1   U22  1  1  0.00027(7)
 La1   U33  1  1  0.00068(9)
 La1   U12  1  1  0.00018(9)
 La1   U13  1  1  0.00001(7)
 La1   U23  1  1  0.00015(10)
 La1   U11  1  2  0.00054(7)
 La1   U22  1  2  0.00075(7)
 La1   U33  1  2 -0.00082(10)
 La1   U12  1  2 -0.00008(10)
 La1   U13  1  2  0.00030(15)
 La1   U23  1  2  0.00018(8)
 La1   U11  1  3 -0.00029(9)
 La1   U22  1  3  0.00060(10)
 La1   U33  1  3 -0.00021(13)
 La1   U12  1  3 -0.00019(8)
 La1   U13  1  3 -0.00006(10)
 La1   U23  1  3 -0.00063(17)
 La1   U11  1  4  0
 La1   U22  1  4  0
 La1   U33  1  4  0
 La1   U12  1  4  0
 La1   U13  1  4  0
 La1   U23  1  4  0


#=======================================================================

# 10. MOLECULAR GEOMETRY


loop_
 _geom_bond_atom_site_label_1
 _geom_bond_atom_site_label_2
 _geom_bond_site_ssg_symmetry_1
 _geom_bond_site_ssg_symmetry_2
 _geom_bond_distance_av
 _geom_bond_distance_min
 _geom_bond_distance_max
 _geom_bond_publ_flag
  La1 Ti11 . 1_5545 3.440(3) 3.440(3) 3.440(3) ?
  La1 Ti11 . . 3.364(3) 3.364(3) 3.364(3) ?
  La1 Ti11 . 6_5445 3.3250(19) 3.3250(19) 3.3250(19) ?
  La1 Fe11 . 1_5545 3.440(3) 3.440(3) 3.440(3) ?
  La1 Fe11 . . 3.364(3) 3.364(3) 3.364(3) ?
  La1 Fe11 . 6_5445 3.3250(19) 3.3250(19) 3.3250(19) ?
  La1 Ti13 . 6_5445 3.3175(14) 3.3175(14) 3.3175(14) ?
  La1 Fe13 . 6_5445 3.3175(14) 3.3175(14) 3.3175(14) ?
  La1 Ti21 . 1_4545 3.425(2) 3.425(2) 3.425(2) ?
  La1 Ti21 . 1_4555 3.348(2) 3.348(2) 3.348(2) ?
  La1 Ti21 . 6_5445 3.3384(18) 3.3384(18) 3.3384(18) ?
  La1 Fe21 . 1_4545 3.425(2) 3.425(2) 3.425(2) ?
  La1 Fe21 . 1_4555 3.348(2) 3.348(2) 3.348(2) ?
  La1 Fe21 . 6_5445 3.3384(18) 3.3384(18) 3.3384(18) ?
  La1 Ti23 . 6_5445 3.3297(13) 3.3297(13) 3.3297(13) ?
  La1 Fe23 . 6_5445 3.3297(13) 3.3297(13) 3.3297(13) ?
  La1 O1 . 1_5545 2.45(5) 2.42(2) 2.47(7) ?
  La1 O1 . . 3.13(5) 3.13(7) 3.13(2) ?
  La1 O2 . . 2.468(19) 2.413(19) 2.523(18) ?
  La1 O2 . 6_5545 3.202(19) 3.152(18) 3.252(19) ?
  La1 O3 . 1_4555 2.451(19) 2.415(18) 2.487(19) ?
  La1 O3 . 6_5545 3.212(19) 3.182(19) 3.243(18) ?
  La1 Ti121 . 5_5555 3.464(3) 3.464(3) 3.464(3) ?
  La1 Ti121 . 5_5565 3.363(3) 3.363(3) 3.363(3) ?
  La1 Fe121 . 5_5555 3.464(3) 3.464(3) 3.464(3) ?
  La1 Fe121 . 5_5565 3.363(3) 3.363(3) 3.363(3) ?
  La1 Ti221 . 5_5555 3.412(3) 3.412(3) 3.412(3) ?
  La1 Ti221 . 5_5565 3.326(3) 3.326(3) 3.326(3) ?
  La1 Fe221 . 5_5555 3.412(3) 3.412(3) 3.412(3) ?
  La1 Fe221 . 5_5565 3.326(3) 3.326(3) 3.326(3) ?
  La1 O11 . 2_5455 2.98(5) 2.83(7) 3.13(2) ?
  La1 O11 . 2_5555 3.04(5) 2.50(2) 3.59(7) ?
  La1 O21 . 5_5555 2.728(10) 2.652(2) 2.805(18) ?
  La1 O21 . 2_5455 2.894(10) 2.886(2) 2.903(18) ?
  La1 O31 . 5_5555 2.666(10) 2.606(2) 2.726(18) ?
  La1 O31 . 2_4455 2.888(10) 2.854(18) 2.921(2) ?
  La2 Ti13 . 1_5545 3.3890(16) 3.3890(16) 3.3890(16) ?
  La2 Ti13 . 8_5645 3.3450(9) 3.3450(9) 3.3450(9) ?
  La2 Fe13 . 1_5545 3.3890(16) 3.3890(16) 3.3890(16) ?
  La2 Fe13 . 8_5645 3.3450(9) 3.3450(9) 3.3450(9) ?
  La2 Ti23 . 1_4545 3.3814(16) 3.3814(16) 3.3814(16) ?
  La2 Fe23 . 1_4545 3.3814(16) 3.3814(16) 3.3814(16) ?
  La2 O1 . 1_5545 2.55(7) 2.55(7) 2.55(7) ?
  La2 O2 . . 2.45(2) 2.45(2) 2.45(2) ?
  La2 O2 . 3_4555 2.48(2) 2.48(2) 2.48(2) ?
  La2 O2 . 6_5545 2.44(2) 2.44(2) 2.44(2) ?
  La2 O2 . 8_5645 2.54(2) 2.54(2) 2.54(2) ?
  La2 O3 . 1_4555 2.39(2) 2.39(2) 2.39(2) ?
  La2 O3 . 6_5545 2.45(2) 2.45(2) 2.45(2) ?
  La2 O11 . 2_5455 3.39(7) 3.39(7) 3.39(7) ?
  La2 O21 . 5_5555 3.230(18) 3.230(18) 3.230(18) ?
  La2 O31 . 5_5555 3.247(18) 3.247(18) 3.247(18) ?
  Ti11 O1 . . 2.01(2) 2.01(2) 2.01(2) ?
  Ti11 O2 . . 1.937(19) 1.937(19) 1.937(19) ?
  Ti11 O2 . 6_5555 2.014(19) 2.014(19) 2.014(19) ?
  Ti11 La11 . 5_5555 3.381(3) 3.381(3) 3.381(3) ?
  Ti11 La11 . 5_5565 3.406(3) 3.406(3) 3.406(3) ?
  Ti11 La11 . 2_5555 3.3463(19) 3.3463(19) 3.3463(19) ?
  Ti11 O11 . 5_5565 1.88(3) 1.88(3) 1.88(3) ?
  Ti11 O21 . 5_5565 1.947(3) 1.947(3) 1.947(3) ?
  Ti11 O21 . 2_5455 2.119(3) 2.119(3) 2.119(3) ?
  Fe11 O1 . . 2.01(2) 2.01(2) 2.01(2) ?
  Fe11 O2 . . 1.937(19) 1.937(19) 1.937(19) ?
  Fe11 O2 . 6_5555 2.014(19) 2.014(19) 2.014(19) ?
  Fe11 La11 . 5_5555 3.381(3) 3.381(3) 3.381(3) ?
  Fe11 La11 . 5_5565 3.406(3) 3.406(3) 3.406(3) ?
  Fe11 La11 . 2_5555 3.3463(19) 3.3463(19) 3.3463(19) ?
  Fe11 O11 . 5_5565 1.88(3) 1.88(3) 1.88(3) ?
  Fe11 O21 . 5_5565 1.947(3) 1.947(3) 1.947(3) ?
  Fe11 O21 . 2_5455 2.119(3) 2.119(3) 2.119(3) ?
  Ti13 O1 . . 2.00(8) 2.00(8) 2.00(8) ?
  Ti13 O2 . . 1.82(2) 1.82(2) 1.82(2) ?
  Ti13 O2 . 6_5555 1.87(2) 1.87(2) 1.87(2) ?
  Ti13 La11 . 2_5455 3.4495(13) 3.4495(13) 3.4495(13) ?
  Ti13 O11 . 5_5565 1.92(8) 1.92(8) 1.92(8) ?
  Ti13 O21 . 5_5565 2.275(18) 2.275(18) 2.275(18) ?
  Ti13 O21 . 2_5455 1.734(18) 1.734(18) 1.734(18) ?
  Fe13 O1 . . 2.00(8) 2.00(8) 2.00(8) ?
  Fe13 O2 . . 1.82(2) 1.82(2) 1.82(2) ?
  Fe13 O2 . 6_5555 1.87(2) 1.87(2) 1.87(2) ?
  Fe13 La11 . 2_5455 3.4495(13) 3.4495(13) 3.4495(13) ?
  Fe13 O11 . 5_5565 1.92(8) 1.92(8) 1.92(8) ?
  Fe13 O21 . 5_5565 2.275(18) 2.275(18) 2.275(18) ?
  Fe13 O21 . 2_5455 1.734(18) 1.734(18) 1.734(18) ?
  Ti21 O1 . 1_6555 1.98(2) 1.98(2) 1.98(2) ?
  Ti21 O3 . . 1.941(18) 1.941(18) 1.941(18) ?
  Ti21 O3 . 6_6555 2.03(2) 2.03(2) 2.03(2) ?
  Ti21 La11 . 5_5555 3.391(2) 3.391(2) 3.391(2) ?
  Ti21 La11 . 5_5565 3.415(2) 3.415(2) 3.415(2) ?
  Ti21 La11 . 2_6455 3.4910(18) 3.4910(18) 3.4910(18) ?
  Ti21 La11 . 2_6555 3.3316(18) 3.3316(18) 3.3316(18) ?
  Ti21 O11 . 5_5565 2.15(3) 2.15(3) 2.15(3) ?
  Ti21 O31 . 5_6565 1.983(3) 1.983(3) 1.983(3) ?
  Ti21 O31 . 2_5455 2.081(3) 2.081(3) 2.081(3) ?
  Fe21 O1 . 1_6555 1.98(2) 1.98(2) 1.98(2) ?
  Fe21 O3 . . 1.941(18) 1.941(18) 1.941(18) ?
  Fe21 O3 . 6_6555 2.03(2) 2.03(2) 2.03(2) ?
  Fe21 La11 . 5_5555 3.391(2) 3.391(2) 3.391(2) ?
  Fe21 La11 . 5_5565 3.415(2) 3.415(2) 3.415(2) ?
  Fe21 La11 . 2_6455 3.4910(18) 3.4910(18) 3.4910(18) ?
  Fe21 La11 . 2_6555 3.3316(18) 3.3316(18) 3.3316(18) ?
  Fe21 O11 . 5_5565 2.15(3) 2.15(3) 2.15(3) ?
  Fe21 O31 . 5_6565 1.983(3) 1.983(3) 1.983(3) ?
  Fe21 O31 . 2_5455 2.081(3) 2.081(3) 2.081(3) ?
  Ti23 O1 . 1_6555 2.01(8) 2.01(8) 2.01(8) ?
  Ti23 O3 . . 1.76(2) 1.76(2) 1.76(2) ?
  Ti23 O3 . 6_6555 1.88(2) 1.88(2) 1.88(2) ?
  Ti23 La11 . 2_6455 3.4930(13) 3.4930(13) 3.4930(13) ?
  Ti23 La31 . 5_5555 3.4929(16) 3.4929(16) 3.4929(16) ?
  Ti23 La31 . 5_5565 3.4690(16) 3.4690(16) 3.4690(16) ?
  Ti23 O11 . 5_5565 2.07(8) 2.07(8) 2.07(8) ?
  Ti23 O31 . 5_6565 2.303(18) 2.303(18) 2.303(18) ?
  Ti23 O31 . 2_5455 1.856(18) 1.856(18) 1.856(18) ?
  Fe23 O1 . 1_6555 2.01(8) 2.01(8) 2.01(8) ?
  Fe23 O3 . . 1.76(2) 1.76(2) 1.76(2) ?
  Fe23 O3 . 6_6555 1.88(2) 1.88(2) 1.88(2) ?
  Fe23 La11 . 2_6455 3.4930(13) 3.4930(13) 3.4930(13) ?
  Fe23 La31 . 5_5555 3.4929(16) 3.4929(16) 3.4929(16) ?
  Fe23 La31 . 5_5565 3.4690(16) 3.4690(16) 3.4690(16) ?
  Fe23 O11 . 5_5565 2.07(8) 2.07(8) 2.07(8) ?
  Fe23 O31 . 5_6565 2.303(18) 2.303(18) 2.303(18) ?
  Fe23 O31 . 2_5455 1.856(18) 1.856(18) 1.856(18) ?
  O1 O2 . . 2.83(6) 2.74(8) 2.96(8) ?
  O1 O2 . 6_5555 2.78(6) 2.78(8) 2.80(3) ?
  O1 O3 . 1_4555 2.81(6) 2.71(8) 2.91(8) ?
  O1 O3 . 6_5555 2.79(6) 2.74(8) 2.82(3) ?
  O1 La11 . 2_5455 2.79(5) 2.60(7) 2.98(2) ?
  O1 La11 . 2_5555 2.58(5) 2.46(7) 2.69(2) ?
  O1 Ti121 . 5_5565 2.07(8) 2.07(8) 2.07(8) ?
  O1 Fe121 . 5_5565 2.07(8) 2.07(8) 2.07(8) ?
  O1 Ti221 . 5_5565 1.97(8) 1.97(8) 1.97(8) ?
  O1 Fe221 . 5_5565 1.97(8) 1.97(8) 1.97(8) ?
  O1 O11 . 2_5465 3.53(8) 2.62(10) 4.02(10) ?
  O1 O11 . 2_5565 3.40(8) 3.09(8) 3.70(7) ?
  O1 O21 . 5_5565 2.81(6) 2.63(8) 3.08(8) ?
  O1 O21 . 2_5455 2.79(6) 2.41(8) 3.03(8) ?
  O1 O31 . 5_5565 2.80(6) 2.70(8) 2.98(8) ?
  O1 O31 . 2_4455 2.78(6) 2.47(8) 2.94(8) ?
  O2 O2 . 3_4555 2.85(3) 2.85(3) 2.85(3) ?
  O2 O2 . 7_5455 2.85(3) 2.85(3) 2.85(3) ?
  O2 O2 . 6_5545 2.82(3) 2.73(3) 2.88(3) ?
  O2 O2 . 6_5555 2.82(3) 2.73(3) 2.88(3) ?
  O2 O3 . 1_4555 3.54(3) 3.40(3) 3.68(3) ?
  O2 O3 . 3_4555 2.94(3) 2.94(3) 2.94(3) ?
  O2 O3 . 7_4455 2.76(3) 2.76(3) 2.76(3) ?
  O2 La11 . 5_5555 2.763(19) 2.736(19) 2.790(18) ?
  O2 La11 . 2_5555 2.741(19) 2.706(18) 2.776(19) ?
  O2 La31 . 5_5555 2.50(2) 2.50(2) 2.50(2) ?
  O2 La31 . 2_5555 2.45(2) 2.45(2) 2.45(2) ?
  O2 Ti121 . 5_5565 2.017(19) 2.017(19) 2.017(19) ?
  O2 Ti121 . 2_5555 2.171(19) 2.171(19) 2.171(19) ?
  O2 Fe121 . 5_5565 2.017(19) 2.017(19) 2.017(19) ?
  O2 Fe121 . 2_5555 2.171(19) 2.171(19) 2.171(19) ?
  O2 O11 . 5_5565 2.80(6) 2.60(3) 3.04(8) ?
  O2 O11 . 2_5555 2.76(6) 2.35(8) 3.52(8) ?
  O2 O21 . 5_5555 3.34(2) 3.240(19) 3.51(3) ?
  O2 O21 . 2_5455 2.78(2) 2.63(3) 2.95(2) ?
  O2 O21 . 2_5555 2.78(2) 2.590(19) 2.99(3) ?
  O3 O3 . 3_4555 2.87(3) 2.87(3) 2.87(3) ?
  O3 O3 . 7_5455 2.87(3) 2.87(3) 2.87(3) ?
  O3 O3 . 6_6545 2.84(3) 2.74(3) 2.91(3) ?
  O3 O3 . 6_6555 2.84(3) 2.74(3) 2.91(3) ?
  O3 La11 . 5_5555 2.755(18) 2.718(18) 2.792(19) ?
  O3 La11 . 2_6555 2.746(19) 2.705(19) 2.787(18) ?
  O3 La31 . 3_5455 2.53(2) 2.53(2) 2.53(2) ?
  O3 La31 . 5_5555 2.45(2) 2.45(2) 2.45(2) ?
  O3 La31 . 2_6555 2.48(2) 2.48(2) 2.48(2) ?
  O3 La31 . 4_5655 3.08(2) 3.08(2) 3.08(2) ?
  O3 Ti221 . 5_6565 2.03(2) 2.03(2) 2.03(2) ?
  O3 Ti221 . 2_5555 2.182(18) 2.182(18) 2.182(18) ?
  O3 Fe221 . 5_6565 2.03(2) 2.03(2) 2.03(2) ?
  O3 Fe221 . 2_5555 2.182(18) 2.182(18) 2.182(18) ?
  O3 O11 . 3_5465 3.41(7) 3.41(7) 3.41(7) ?
  O3 O11 . 5_5565 2.86(6) 2.81(3) 2.89(8) ?
  O3 O11 . 2_6555 2.83(6) 2.51(8) 3.40(8) ?
  O3 O31 . 5_6555 3.24(2) 3.13(3) 3.39(3) ?
  O3 O31 . 2_5455 2.79(2) 2.65(3) 2.941(19) ?
  O3 O31 . 2_5555 2.78(2) 2.63(2) 2.87(3) ?
  La11 Ti121 . . 3.409(3) 3.409(3) 3.409(3) ?
  La11 Ti121 . 1_5565 3.358(3) 3.358(3) 3.358(3) ?
  La11 Ti121 . 6_4555 3.420(3) 3.420(3) 3.420(3) ?
  La11 Fe121 . . 3.409(3) 3.409(3) 3.409(3) ?
  La11 Fe121 . 1_5565 3.358(3) 3.358(3) 3.358(3) ?
  La11 Fe121 . 6_4555 3.420(3) 3.420(3) 3.420(3) ?
  La11 Ti221 . 1_6555 3.441(3) 3.441(3) 3.441(3) ?
  La11 Ti221 . 1_6565 3.407(3) 3.407(3) 3.407(3) ?
  La11 Ti221 . 6_4555 3.392(2) 3.392(2) 3.392(2) ?
  La11 Fe221 . 1_6555 3.441(3) 3.441(3) 3.441(3) ?
  La11 Fe221 . 1_6565 3.407(3) 3.407(3) 3.407(3) ?
  La11 Fe221 . 6_4555 3.392(2) 3.392(2) 3.392(2) ?
  La11 O11 . . 3.30(5) 2.97(2) 3.63(7) ?
  La11 O11 . 1_5565 2.36(5) 2.10(7) 2.62(2) ?
  La11 O21 . . 2.376(10) 2.358(2) 2.394(18) ?
  La11 O21 . 6_4455 3.146(10) 2.970(18) 3.322(2) ?
  La11 O31 . 1_6555 2.354(10) 2.336(18) 2.372(2) ?
  La11 O31 . 6_4455 3.191(10) 3.081(18) 3.300(2) ?
  La31 O11 . . 2.60(7) 2.60(7) 2.60(7) ?
  La31 O11 . 1_5565 3.11(7) 3.11(7) 3.11(7) ?
  La31 O21 . . 3.077(18) 3.077(18) 3.077(18) ?
  La31 O31 . 1_6555 2.938(18) 2.938(18) 2.938(18) ?
  Ti121 O11 . . 2.23(8) 2.23(8) 2.23(8) ?
  Ti121 O21 . . 2.124(18) 2.124(18) 2.124(18) ?
  Ti121 O21 . 6_4445 1.743(18) 1.743(18) 1.743(18) ?
  Fe121 O11 . . 2.23(8) 2.23(8) 2.23(8) ?
  Fe121 O21 . . 2.124(18) 2.124(18) 2.124(18) ?
  Fe121 O21 . 6_4445 1.743(18) 1.743(18) 1.743(18) ?
  Ti221 O11 . 1_4555 2.08(8) 2.08(8) 2.08(8) ?
  Ti221 O31 . . 2.059(18) 2.059(18) 2.059(18) ?
  Ti221 O31 . 6_3445 1.751(18) 1.751(18) 1.751(18) ?
  Fe221 O11 . 1_4555 2.08(8) 2.08(8) 2.08(8) ?
  Fe221 O31 . . 2.059(18) 2.059(18) 2.059(18) ?
  Fe221 O31 . 6_3445 1.751(18) 1.751(18) 1.751(18) ?
  O11 O21 . . 2.95(6) 2.81(2) 3.11(8) ?
  O11 O21 . 6_4445 2.79(6) 2.24(8) 3.17(2) ?
  O11 O31 . 1_6545 4.16(6) 3.47(8) 4.60(8) ?
  O11 O31 . 1_6555 2.98(6) 2.94(8) 3.02(2) ?
  O11 O31 . 6_4445 2.86(6) 2.15(8) 3.29(2) ?
  O21 O21 . 6_4445 2.834(18) 2.76(2) 2.914(3) ?
  O21 O21 . 6_4455 2.834(18) 2.76(2) 2.914(3) ?
  O21 O31 . 1_6555 3.544(18) 3.28(2) 3.87(2) ?
  O31 O31 . 6_3445 2.845(18) 2.79(3) 2.895(4) ?
  O31 O31 . 6_3455 2.845(18) 2.79(3) 2.895(4) ?

#=======================================================================
data_n6_200K
#=======================================================================

# 5. CHEMICAL DATA

_chemical_name_systematic
?
_chemical_name_common                    ?
_chemical_formula_moiety                 ?
_chemical_formula_structural             ?
_chemical_formula_analytical             ?
_chemical_formula_iupac                  ?
_chemical_formula_sum                    'Fe0.571 La3.429 O11.429 Ti2.858'
_chemical_formula_weight                 827.9
_chemical_melting_point                  ?
_chemical_compound_source                ?
_chemical_absolute_configuration         .

#=======================================================================

# 6. CRYSTAL DATA

_symmetry_cell_setting                   monoclinic
_space_group_ssg_name                    'X21/b(\a\b0)00'
loop_
 _space_group_symop_ssg_id
 _space_group_symop_ssg_operation_algebraic
 1   x1,x2,x3,x4
 2   -x1+1/4,-x2,x3+1/2,-x4+1/4
 3   -x1,-x2,-x3,-x4+1/2
 4   x1,x2+1/2,-x3+1/2,x4
 5   x1+3/4,x2+1/2,x3,x4+1/4
 6   -x1,-x2+1/2,x3+1/2,-x4+1/2
 7   -x1+3/4,-x2+1/2,-x3,-x4+3/4
 8   x1+3/4,x2,-x3+1/2,x4+1/4
 9   x1+1/2,x2,x3,x4+1/2
 10  -x1+3/4,-x2,x3+1/2,-x4+3/4
 11  -x1+1/2,-x2,-x3,-x4
 12  x1+1/2,x2+1/2,-x3+1/2,x4+1/2
 13  x1+1/4,x2+1/2,x3,x4+3/4
 14  -x1+1/2,-x2+1/2,x3+1/2,-x4
 15  -x1+1/4,-x2+1/2,-x3,-x4+1/4
 16  x1+1/4,x2,-x3+1/2,x4+3/4
_cell_length_a                           7.8267(19)
_cell_length_b                           5.2714(16)
_cell_length_c                           5.5503(17)
_cell_angle_alpha                        90
_cell_angle_beta                         90
_cell_angle_gamma                        90.019(17)
_cell_volume                             228.99(11)

loop_
 _jana_cell_twin_matrix_id
 _jana_cell_twin_volume_fraction
 _jana_cell_twin_matrix_1_1
 _jana_cell_twin_matrix_1_2
 _jana_cell_twin_matrix_1_3
 _jana_cell_twin_matrix_2_1
 _jana_cell_twin_matrix_2_2
 _jana_cell_twin_matrix_2_3
 _jana_cell_twin_matrix_3_1
 _jana_cell_twin_matrix_3_2
 _jana_cell_twin_matrix_3_3
1 0.5905(10)
1 0 0
0 1 0
0 0 1
2 0.4095(10)
1 0 0
0 -1 0
0 0 -1

_cell_modulation_dimension               1
loop_
 _cell_wave_vector_seq_id
 _cell_wave_vector_x
 _cell_wave_vector_y
 _cell_wave_vector_z
 1  0.000000  0.071429  0.000000

_jana_cell_commen_supercell_matrix_1_1   1
_jana_cell_commen_supercell_matrix_1_2   0
_jana_cell_commen_supercell_matrix_1_3   0
_jana_cell_commen_supercell_matrix_2_1   0
_jana_cell_commen_supercell_matrix_2_2   14
_jana_cell_commen_supercell_matrix_2_3   0
_jana_cell_commen_supercell_matrix_3_1   0
_jana_cell_commen_supercell_matrix_3_2   0
_jana_cell_commen_supercell_matrix_3_3   1

_jana_cell_commen_t_section_1            0.018

_cell_formula_units_Z                    1

_cell_measurement_reflns_used            0
_cell_measurement_theta_min              ?
_cell_measurement_theta_max              ?
_cell_measurement_temperature            200
_cell_special_details
?

_exptl_crystal_density_diffrn            6.0015
_exptl_crystal_density_meas              ?
_exptl_crystal_density_method            ?
_exptl_crystal_F_000                     367

_exptl_absorpt_coefficient_mu            18.927
_exptl_crystal_description               'thick plate'
_exptl_crystal_size_max                  0.12
_exptl_crystal_size_mid                  0.08
_exptl_crystal_size_min                  0.005
_exptl_crystal_size_rad                  ?
_exptl_crystal_colour                    'metallic gray'
_exptl_absorpt_correction_type           numerical
_exptl_absorpt_process_details           'SADABS (version2008/1)'
_exptl_absorpt_correction_T_min          0.3409 
_exptl_absorpt_correction_T_max          0.7478

#=======================================================================

# 7. EXPERIMENTAL DATA

_exptl_special_details                   ?

_diffrn_ambient_temperature              200
_diffrn_source                           ?
_diffrn_source_power                     ?
_diffrn_source_voltage                   55
_diffrn_source_current                   75
_diffrn_radiation_type                   'Mo K\a'
_diffrn_radiation_source                 'Rotating anode X-ray tube'
_diffrn_radiation_wavelength             0.71069
_diffrn_radiation_monochromator          graphite
_diffrn_measurement_device               'Image-Plate diffractometer'
_diffrn_measurement_device_type          'MarResearch Mar345dtb'
_diffrn_detector                         'MarResearch Mar345'
_diffrn_detector_area_resol_mean         ?
_diffrn_measurement_method               'Rotating, \f scans'
_diffrn_measurement_specimen_support     ?

_diffrn_reflns_number                    56173
_diffrn_reflns_theta_min                 2.21
_diffrn_reflns_theta_max                 39.3
_diffrn_reflns_theta_full                32.94
_diffrn_measured_fraction_theta_max      0.87
_diffrn_measured_fraction_theta_full     0.98
_diffrn_reflns_av_R_equivalents          0.0481
_diffrn_reflns_av_sigmaI/netI            0.0374
_diffrn_reflns_limit_h_min               -13
_diffrn_reflns_limit_h_max               13
_diffrn_reflns_limit_k_min               -9
_diffrn_reflns_limit_k_max               9
_diffrn_reflns_limit_l_min               -8
_diffrn_reflns_limit_l_max               8
_diffrn_reflns_limit_index_m_1_min       -7
_diffrn_reflns_limit_index_m_1_max       7
_diffrn_reflns_reduction_process         ?

_diffrn_standards_number                 ?
_diffrn_standards_interval_count         ?
_diffrn_standards_interval_time          ?
_diffrn_standards_decay_%                ?
loop_
_diffrn_standard_refln_index_h
_diffrn_standard_refln_index_k
_diffrn_standard_refln_index_l
  ? ? ?

_diffrn_radiation_probe                  x-ray

#=======================================================================

# 8. REFINEMENT DATA

_refine_special_details
?

_reflns_number_total                     12184
_reflns_number_gt                        11268
_reflns_threshold_expression             'I>3\s(I)'

_refine_ls_structure_factor_coef         F
_refine_ls_R_factor_gt                   0.0635
_refine_ls_wR_factor_gt                  0.0833
_refine_ls_R_factor_all                  0.0691
_refine_ls_wR_factor_ref                 0.0841
_refine_ls_goodness_of_fit_ref           3.29
_refine_ls_goodness_of_fit_gt            3.39
_refine_ls_restrained_S_gt               ?
_refine_ls_restrained_S_all              ?
_refine_ls_number_reflns                 12184
_refine_ls_number_parameters             161
_refine_ls_number_restraints             0
_refine_ls_number_constraints            8
_refine_ls_weighting_scheme              sigma
_refine_ls_weighting_details             'w=1/(\s^2^(F)+0.0001F^2^)'
_refine_ls_hydrogen_treatment            ?
_refine_ls_shift/su_max                  0.0059
_refine_ls_shift/su_mean                 0.0007
_refine_diff_density_max                 20.11
_refine_diff_density_min                 -4.91
_refine_ls_extinction_method             'none'
_refine_ls_extinction_coef               ?
_refine_ls_abs_structure_details         ?
_refine_ls_abs_structure_Flack           ?
_refine_ls_abs_structure_Rogers          ?

loop_
 _atom_type_symbol
 _atom_type_scat_dispersion_real
 _atom_type_scat_dispersion_imag
 _atom_type_scat_source
 Fe  0.3463  0.8444
 'International Tables Vol C tables 4.2.6.8 and 6.1.1.1'
 La -0.2871  2.4523
 'International Tables Vol C tables 4.2.6.8 and 6.1.1.1'
 O   0.0106  0.0060
 'International Tables Vol C tables 4.2.6.8 and 6.1.1.1'
 Ti  0.2776  0.4457
 'International Tables Vol C tables 4.2.6.8 and 6.1.1.1'

_computing_data_collection               ?
_computing_cell_refinement               ?
_computing_data_reduction                ?
_computing_structure_solution            ?
_computing_structure_refinement          ?
_computing_molecular_graphics            ?
_computing_publication_material          ?

#=======================================================================

# 9. ATOMIC COORDINATES AND DISPLACEMENT PARAMETERS

loop_
 _atom_site_label
 _atom_site_type_symbol
 _atom_site_fract_x
 _atom_site_fract_y
 _atom_site_fract_z
 _atom_site_adp_type
 _atom_site_U_iso_or_equiv
 _atom_site_symmetry_multiplicity
 _atom_site_occupancy
 _atom_site_calc_flag
 _atom_site_refinement_flags
 _atom_site_disorder_assembly
 _atom_site_disorder_group
  La1 La -0.00024(3) -0.01818(4) 0.00275(4) Uani 0.00597(6) 16 0.1429 d . . .
  La2 La -0.00149(10) 0.29721(8) -0.08973(14) Uani 0.00646(9) 16 0.0357 d . . .
  La3 La -0.00275(10) -0.23131(10) 0.04733(15) Uani 0.01140(12) 16 0.0357 d . .
 .
  Ti11 Ti 0.25 0 0.5 Uani 0.0044(2) 8 0.022(2) d . . .
  Fe11 Fe 0.25 0 0.5 Uani 0.0044(2) 8 0.050(2) d . . .
  Ti12 Ti 0.25 0 0.5 Uani 0.0044(2) 16 0.0269(10) d . . .
  Fe12 Fe 0.25 0 0.5 Uani 0.0044(2) 16 0.0088(10) d . . .
  Ti13 Ti 0.25 0 0.5 Uani 0.0044(2) 16 0.0345(9) d . . .
  Fe13 Fe 0.25 0 0.5 Uani 0.0044(2) 16 0.0012(9) d . . .
  Ti21 Ti 0.75 0 0.5 Uani 0.0040(2) 8 0.023(2) d . . .
  Fe21 Fe 0.75 0 0.5 Uani 0.0040(2) 8 0.048(2) d . . .
  Ti22 Ti 0.75 0 0.5 Uani 0.0040(2) 16 0.0268(10) d . . .
  Fe22 Fe 0.75 0 0.5 Uani 0.0040(2) 16 0.0089(10) d . . .
  Ti23 Ti 0.75 0 0.5 Uani 0.0040(2) 16 0.0331(9) d . . .
  Fe23 Fe 0.75 0 0.5 Uani 0.0040(2) 16 0.0026(9) d . . .
  O1 O -0.0003(3) 0.0074(4) 0.5576(5) Uani 0.0084(5) 16 0.2143 d . . .
  O2 O 0.2247(3) 0.2141(5) 0.2101(4) Uani 0.0076(5) 16 0.25 d . . .
  O3 O 0.7765(3) 0.2076(5) 0.2059(4) Uani 0.0078(5) 16 0.25 d . . .

loop_
 _atom_site_aniso_label
 _atom_site_aniso_type_symbol
 _atom_site_aniso_U_11
 _atom_site_aniso_U_22
 _atom_site_aniso_U_33
 _atom_site_aniso_U_12
 _atom_site_aniso_U_13
 _atom_site_aniso_U_23
 La1 La 0.00274(10) 0.01057(9) 0.00461(14) 0.00003(9) -0.00012(12) -0.00123(6)
 La2 La 0.00204(13) 0.01371(15) 0.0036(2) -0.00043(18) -0.00059(17) -0.00175(13)
 La3 La 0.00211(15) 0.02151(19) 0.0106(3) 0.0002(2) -0.00032(19) -0.00583(16)
 Ti11 Ti 0.0030(3) 0.0080(3) 0.0021(4) -0.0029(5) -0.0004(5) 0.0001(2)
 Fe11 Fe 0.0030(3) 0.0080(3) 0.0021(4) -0.0029(5) -0.0004(5) 0.0001(2)
 Ti12 Ti 0.0030(3) 0.0080(3) 0.0021(4) -0.0029(5) -0.0004(5) 0.0001(2)
 Fe12 Fe 0.0030(3) 0.0080(3) 0.0021(4) -0.0029(5) -0.0004(5) 0.0001(2)
 Ti13 Ti 0.0030(3) 0.0080(3) 0.0021(4) -0.0029(5) -0.0004(5) 0.0001(2)
 Fe13 Fe 0.0030(3) 0.0080(3) 0.0021(4) -0.0029(5) -0.0004(5) 0.0001(2)
 Ti21 Ti 0.0028(3) 0.0075(2) 0.0016(4) -0.0029(5) -0.0004(5) 0.0006(2)
 Fe21 Fe 0.0028(3) 0.0075(2) 0.0016(4) -0.0029(5) -0.0004(5) 0.0006(2)
 Ti22 Ti 0.0028(3) 0.0075(2) 0.0016(4) -0.0029(5) -0.0004(5) 0.0006(2)
 Fe22 Fe 0.0028(3) 0.0075(2) 0.0016(4) -0.0029(5) -0.0004(5) 0.0006(2)
 Ti23 Ti 0.0028(3) 0.0075(2) 0.0016(4) -0.0029(5) -0.0004(5) 0.0006(2)
 Fe23 Fe 0.0028(3) 0.0075(2) 0.0016(4) -0.0029(5) -0.0004(5) 0.0006(2)
 O1 O 0.0002(8) 0.0158(9) 0.0092(12) -0.0001(8) 0.0003(6) -0.0005(7)
 O2 O 0.0070(11) 0.0136(8) 0.0021(10) -0.0011(7) 0.0006(7) 0.0023(7)
 O3 O 0.0067(10) 0.0135(8) 0.0033(10) 0.0002(7) 0.0011(7) 0.0022(7)


loop_
 _atom_site_Fourier_wave_vector_seq_id
 _jana_atom_site_Fourier_wave_vector_q1_coeff
    1    1
    2    2
    3    3
    4    4
    5    5
    6    6
    7    7
    8    8
    9    9
   10   10
   11   11
   12   12

loop_
 _jana_atom_site_crenel_ortho_func_id
 _jana_atom_site_crenel_ortho_func_c
 _jana_atom_site_crenel_ortho_func_w
 _jana_atom_site_crenel_ortho_func_eps
 1  0.000000  0.142857  0.950000
 2  0.110521  0.035714  0.950000
 3 -0.105816  0.035714  0.950000
 4  0.000000  0.214286  0.950000
 5  0.000000  0.250000  0.950000
 6  0.000000  0.250000  0.950000

loop_
 _atom_site_occ_special_func_atom_site_label
 _atom_site_occ_special_func_crenel_c
 _atom_site_occ_special_func_crenel_w
 La1  0  0.1429
 La2  0.110521(6)  0.0357
 La3 -0.105816(7)  0.0357
 Ti11  0  0.0714
 Fe11  0  0.0714
 Ti12  0.0536  0.0357
 Fe12  0.0536  0.0357
 Ti13  0.0893  0.0357
 Fe13  0.0893  0.0357
 Ti21  0  0.0714
 Fe21  0  0.0714
 Ti22  0.0536  0.0357
 Fe22  0.0536  0.0357
 Ti23  0.0893  0.0357
 Fe23  0.0893  0.0357
 O1  0  0.2143
 O2  0  0.25
 O3  0  0.25

loop_
 _atom_site_displace_Fourier_atom_site_label
 _atom_site_displace_Fourier_axis
 _atom_site_displace_Fourier_wave_vector_seq_id
 _atom_site_displace_Fourier_param_cos
 _atom_site_displace_Fourier_param_sin
 Ti11  x  1     0               -0.0071(7)
 Ti11  y  1     0                0.1430(4)
 Ti11  z  1     0               -0.0598(5)
 Ti11  x  2     0                0
 Ti11  y  2     0                0
 Ti11  z  2     0                0
 Ti11  x  3     0                0
 Ti11  y  3     0                0
 Ti11  z  3     0                0
 Ti11  x  4     0                0
 Ti11  y  4     0                0
 Ti11  z  4     0                0
 Ti11  x  5     0                0
 Ti11  y  5     0                0
 Ti11  z  5     0                0
 Ti11  x  6     0                0.0008(4)
 Ti11  y  6     0                0.0109(2)
 Ti11  z  6     0                0.0222(2)
 Ti11  x  7     0                0
 Ti11  y  7     0                0
 Ti11  z  7     0                0
 Ti11  x  8     0                0
 Ti11  y  8     0                0
 Ti11  z  8     0                0
 Ti11  x  9     0                0
 Ti11  y  9     0                0
 Ti11  z  9     0                0
 Ti11  x 10     0                0
 Ti11  y 10     0                0
 Ti11  z 10     0                0
 Ti11  x 11     0                0
 Ti11  y 11     0                0
 Ti11  z 11     0                0
 Ti11  x 12     0                0.0013(2)
 Ti11  y 12     0               -0.00808(15)
 Ti11  z 12     0               -0.0122(4)
 Fe11  x  1     0               -0.0071(7)
 Fe11  y  1     0                0.1430(4)
 Fe11  z  1     0               -0.0598(5)
 Fe11  x  2     0                0
 Fe11  y  2     0                0
 Fe11  z  2     0                0
 Fe11  x  3     0                0
 Fe11  y  3     0                0
 Fe11  z  3     0                0
 Fe11  x  4     0                0
 Fe11  y  4     0                0
 Fe11  z  4     0                0
 Fe11  x  5     0                0
 Fe11  y  5     0                0
 Fe11  z  5     0                0
 Fe11  x  6     0                0.0008(4)
 Fe11  y  6     0                0.0109(2)
 Fe11  z  6     0                0.0222(2)
 Fe11  x  7     0                0
 Fe11  y  7     0                0
 Fe11  z  7     0                0
 Fe11  x  8     0                0
 Fe11  y  8     0                0
 Fe11  z  8     0                0
 Fe11  x  9     0                0
 Fe11  y  9     0                0
 Fe11  z  9     0                0
 Fe11  x 10     0                0
 Fe11  y 10     0                0
 Fe11  z 10     0                0
 Fe11  x 11     0                0
 Fe11  y 11     0                0
 Fe11  z 11     0                0
 Fe11  x 12     0                0.0013(2)
 Fe11  y 12     0               -0.00808(15)
 Fe11  z 12     0               -0.0122(4)
 Ti12  x  1     0               -0.0071(7)
 Ti12  y  1     0                0.1430(4)
 Ti12  z  1     0               -0.0598(5)
 Ti12  x  2     0                0
 Ti12  y  2     0                0
 Ti12  z  2     0                0
 Ti12  x  3     0                0
 Ti12  y  3     0                0
 Ti12  z  3     0                0
 Ti12  x  4     0                0
 Ti12  y  4     0                0
 Ti12  z  4     0                0
 Ti12  x  5     0                0
 Ti12  y  5     0                0
 Ti12  z  5     0                0
 Ti12  x  6     0                0.0008(4)
 Ti12  y  6     0                0.0109(2)
 Ti12  z  6     0                0.0222(2)
 Ti12  x  7     0                0
 Ti12  y  7     0                0
 Ti12  z  7     0                0
 Ti12  x  8     0                0
 Ti12  y  8     0                0
 Ti12  z  8     0                0
 Ti12  x  9     0                0
 Ti12  y  9     0                0
 Ti12  z  9     0                0
 Ti12  x 10     0                0
 Ti12  y 10     0                0
 Ti12  z 10     0                0
 Ti12  x 11     0                0
 Ti12  y 11     0                0
 Ti12  z 11     0                0
 Ti12  x 12     0                0.0013(2)
 Ti12  y 12     0               -0.00808(15)
 Ti12  z 12     0               -0.0122(4)
 Fe12  x  1     0               -0.0071(7)
 Fe12  y  1     0                0.1430(4)
 Fe12  z  1     0               -0.0598(5)
 Fe12  x  2     0                0
 Fe12  y  2     0                0
 Fe12  z  2     0                0
 Fe12  x  3     0                0
 Fe12  y  3     0                0
 Fe12  z  3     0                0
 Fe12  x  4     0                0
 Fe12  y  4     0                0
 Fe12  z  4     0                0
 Fe12  x  5     0                0
 Fe12  y  5     0                0
 Fe12  z  5     0                0
 Fe12  x  6     0                0.0008(4)
 Fe12  y  6     0                0.0109(2)
 Fe12  z  6     0                0.0222(2)
 Fe12  x  7     0                0
 Fe12  y  7     0                0
 Fe12  z  7     0                0
 Fe12  x  8     0                0
 Fe12  y  8     0                0
 Fe12  z  8     0                0
 Fe12  x  9     0                0
 Fe12  y  9     0                0
 Fe12  z  9     0                0
 Fe12  x 10     0                0
 Fe12  y 10     0                0
 Fe12  z 10     0                0
 Fe12  x 11     0                0
 Fe12  y 11     0                0
 Fe12  z 11     0                0
 Fe12  x 12     0                0.0013(2)
 Fe12  y 12     0               -0.00808(15)
 Fe12  z 12     0               -0.0122(4)
 Ti13  x  1     0               -0.0071(7)
 Ti13  y  1     0                0.1430(4)
 Ti13  z  1     0               -0.0598(5)
 Ti13  x  2     0                0
 Ti13  y  2     0                0
 Ti13  z  2     0                0
 Ti13  x  3     0                0
 Ti13  y  3     0                0
 Ti13  z  3     0                0
 Ti13  x  4     0                0
 Ti13  y  4     0                0
 Ti13  z  4     0                0
 Ti13  x  5     0                0
 Ti13  y  5     0                0
 Ti13  z  5     0                0
 Ti13  x  6     0                0.0008(4)
 Ti13  y  6     0                0.0109(2)
 Ti13  z  6     0                0.0222(2)
 Ti13  x  7     0                0
 Ti13  y  7     0                0
 Ti13  z  7     0                0
 Ti13  x  8     0                0
 Ti13  y  8     0                0
 Ti13  z  8     0                0
 Ti13  x  9     0                0
 Ti13  y  9     0                0
 Ti13  z  9     0                0
 Ti13  x 10     0                0
 Ti13  y 10     0                0
 Ti13  z 10     0                0
 Ti13  x 11     0                0
 Ti13  y 11     0                0
 Ti13  z 11     0                0
 Ti13  x 12     0                0.0013(2)
 Ti13  y 12     0               -0.00808(15)
 Ti13  z 12     0               -0.0122(4)
 Fe13  x  1     0               -0.0071(7)
 Fe13  y  1     0                0.1430(4)
 Fe13  z  1     0               -0.0598(5)
 Fe13  x  2     0                0
 Fe13  y  2     0                0
 Fe13  z  2     0                0
 Fe13  x  3     0                0
 Fe13  y  3     0                0
 Fe13  z  3     0                0
 Fe13  x  4     0                0
 Fe13  y  4     0                0
 Fe13  z  4     0                0
 Fe13  x  5     0                0
 Fe13  y  5     0                0
 Fe13  z  5     0                0
 Fe13  x  6     0                0.0008(4)
 Fe13  y  6     0                0.0109(2)
 Fe13  z  6     0                0.0222(2)
 Fe13  x  7     0                0
 Fe13  y  7     0                0
 Fe13  z  7     0                0
 Fe13  x  8     0                0
 Fe13  y  8     0                0
 Fe13  z  8     0                0
 Fe13  x  9     0                0
 Fe13  y  9     0                0
 Fe13  z  9     0                0
 Fe13  x 10     0                0
 Fe13  y 10     0                0
 Fe13  z 10     0                0
 Fe13  x 11     0                0
 Fe13  y 11     0                0
 Fe13  z 11     0                0
 Fe13  x 12     0                0.0013(2)
 Fe13  y 12     0               -0.00808(15)
 Fe13  z 12     0               -0.0122(4)
 Ti21  x  1     0               -0.0014(7)
 Ti21  y  1     0                0.1561(4)
 Ti21  z  1     0               -0.0639(5)
 Ti21  x  2     0                0
 Ti21  y  2     0                0
 Ti21  z  2     0                0
 Ti21  x  3     0                0
 Ti21  y  3     0                0
 Ti21  z  3     0                0
 Ti21  x  4     0                0
 Ti21  y  4     0                0
 Ti21  z  4     0                0
 Ti21  x  5     0                0
 Ti21  y  5     0                0
 Ti21  z  5     0                0
 Ti21  x  6     0               -0.0016(3)
 Ti21  y  6     0                0.00968(20)
 Ti21  z  6     0                0.0220(2)
 Ti21  x  7     0                0
 Ti21  y  7     0                0
 Ti21  z  7     0                0
 Ti21  x  8     0                0
 Ti21  y  8     0                0
 Ti21  z  8     0                0
 Ti21  x  9     0                0
 Ti21  y  9     0                0
 Ti21  z  9     0                0
 Ti21  x 10     0                0
 Ti21  y 10     0                0
 Ti21  z 10     0                0
 Ti21  x 11     0                0
 Ti21  y 11     0                0
 Ti21  z 11     0                0
 Ti21  x 12     0                0.0031(2)
 Ti21  y 12     0               -0.00886(15)
 Ti21  z 12     0               -0.0119(3)
 Fe21  x  1     0               -0.0014(7)
 Fe21  y  1     0                0.1561(4)
 Fe21  z  1     0               -0.0639(5)
 Fe21  x  2     0                0
 Fe21  y  2     0                0
 Fe21  z  2     0                0
 Fe21  x  3     0                0
 Fe21  y  3     0                0
 Fe21  z  3     0                0
 Fe21  x  4     0                0
 Fe21  y  4     0                0
 Fe21  z  4     0                0
 Fe21  x  5     0                0
 Fe21  y  5     0                0
 Fe21  z  5     0                0
 Fe21  x  6     0               -0.0016(3)
 Fe21  y  6     0                0.00968(20)
 Fe21  z  6     0                0.0220(2)
 Fe21  x  7     0                0
 Fe21  y  7     0                0
 Fe21  z  7     0                0
 Fe21  x  8     0                0
 Fe21  y  8     0                0
 Fe21  z  8     0                0
 Fe21  x  9     0                0
 Fe21  y  9     0                0
 Fe21  z  9     0                0
 Fe21  x 10     0                0
 Fe21  y 10     0                0
 Fe21  z 10     0                0
 Fe21  x 11     0                0
 Fe21  y 11     0                0
 Fe21  z 11     0                0
 Fe21  x 12     0                0.0031(2)
 Fe21  y 12     0               -0.00886(15)
 Fe21  z 12     0               -0.0119(3)
 Ti22  x  1     0               -0.0014(7)
 Ti22  y  1     0                0.1561(4)
 Ti22  z  1     0               -0.0639(5)
 Ti22  x  2     0                0
 Ti22  y  2     0                0
 Ti22  z  2     0                0
 Ti22  x  3     0                0
 Ti22  y  3     0                0
 Ti22  z  3     0                0
 Ti22  x  4     0                0
 Ti22  y  4     0                0
 Ti22  z  4     0                0
 Ti22  x  5     0                0
 Ti22  y  5     0                0
 Ti22  z  5     0                0
 Ti22  x  6     0               -0.0016(3)
 Ti22  y  6     0                0.00968(20)
 Ti22  z  6     0                0.0220(2)
 Ti22  x  7     0                0
 Ti22  y  7     0                0
 Ti22  z  7     0                0
 Ti22  x  8     0                0
 Ti22  y  8     0                0
 Ti22  z  8     0                0
 Ti22  x  9     0                0
 Ti22  y  9     0                0
 Ti22  z  9     0                0
 Ti22  x 10     0                0
 Ti22  y 10     0                0
 Ti22  z 10     0                0
 Ti22  x 11     0                0
 Ti22  y 11     0                0
 Ti22  z 11     0                0
 Ti22  x 12     0                0.0031(2)
 Ti22  y 12     0               -0.00886(15)
 Ti22  z 12     0               -0.0119(3)
 Fe22  x  1     0               -0.0014(7)
 Fe22  y  1     0                0.1561(4)
 Fe22  z  1     0               -0.0639(5)
 Fe22  x  2     0                0
 Fe22  y  2     0                0
 Fe22  z  2     0                0
 Fe22  x  3     0                0
 Fe22  y  3     0                0
 Fe22  z  3     0                0
 Fe22  x  4     0                0
 Fe22  y  4     0                0
 Fe22  z  4     0                0
 Fe22  x  5     0                0
 Fe22  y  5     0                0
 Fe22  z  5     0                0
 Fe22  x  6     0               -0.0016(3)
 Fe22  y  6     0                0.00968(20)
 Fe22  z  6     0                0.0220(2)
 Fe22  x  7     0                0
 Fe22  y  7     0                0
 Fe22  z  7     0                0
 Fe22  x  8     0                0
 Fe22  y  8     0                0
 Fe22  z  8     0                0
 Fe22  x  9     0                0
 Fe22  y  9     0                0
 Fe22  z  9     0                0
 Fe22  x 10     0                0
 Fe22  y 10     0                0
 Fe22  z 10     0                0
 Fe22  x 11     0                0
 Fe22  y 11     0                0
 Fe22  z 11     0                0
 Fe22  x 12     0                0.0031(2)
 Fe22  y 12     0               -0.00886(15)
 Fe22  z 12     0               -0.0119(3)
 Ti23  x  1     0               -0.0014(7)
 Ti23  y  1     0                0.1561(4)
 Ti23  z  1     0               -0.0639(5)
 Ti23  x  2     0                0
 Ti23  y  2     0                0
 Ti23  z  2     0                0
 Ti23  x  3     0                0
 Ti23  y  3     0                0
 Ti23  z  3     0                0
 Ti23  x  4     0                0
 Ti23  y  4     0                0
 Ti23  z  4     0                0
 Ti23  x  5     0                0
 Ti23  y  5     0                0
 Ti23  z  5     0                0
 Ti23  x  6     0               -0.0016(3)
 Ti23  y  6     0                0.00968(20)
 Ti23  z  6     0                0.0220(2)
 Ti23  x  7     0                0
 Ti23  y  7     0                0
 Ti23  z  7     0                0
 Ti23  x  8     0                0
 Ti23  y  8     0                0
 Ti23  z  8     0                0
 Ti23  x  9     0                0
 Ti23  y  9     0                0
 Ti23  z  9     0                0
 Ti23  x 10     0                0
 Ti23  y 10     0                0
 Ti23  z 10     0                0
 Ti23  x 11     0                0
 Ti23  y 11     0                0
 Ti23  z 11     0                0
 Ti23  x 12     0                0.0031(2)
 Ti23  y 12     0               -0.00886(15)
 Ti23  z 12     0               -0.0119(3)
 Fe23  x  1     0               -0.0014(7)
 Fe23  y  1     0                0.1561(4)
 Fe23  z  1     0               -0.0639(5)
 Fe23  x  2     0                0
 Fe23  y  2     0                0
 Fe23  z  2     0                0
 Fe23  x  3     0                0
 Fe23  y  3     0                0
 Fe23  z  3     0                0
 Fe23  x  4     0                0
 Fe23  y  4     0                0
 Fe23  z  4     0                0
 Fe23  x  5     0                0
 Fe23  y  5     0                0
 Fe23  z  5     0                0
 Fe23  x  6     0               -0.0016(3)
 Fe23  y  6     0                0.00968(20)
 Fe23  z  6     0                0.0220(2)
 Fe23  x  7     0                0
 Fe23  y  7     0                0
 Fe23  z  7     0                0
 Fe23  x  8     0                0
 Fe23  y  8     0                0
 Fe23  z  8     0                0
 Fe23  x  9     0                0
 Fe23  y  9     0                0
 Fe23  z  9     0                0
 Fe23  x 10     0                0
 Fe23  y 10     0                0
 Fe23  z 10     0                0
 Fe23  x 11     0                0
 Fe23  y 11     0                0
 Fe23  z 11     0                0
 Fe23  x 12     0                0.0031(2)
 Fe23  y 12     0               -0.00886(15)
 Fe23  z 12     0               -0.0119(3)

loop_
 _jana_atom_site_displace_crenel_ortho_atom_site_label
 _jana_atom_site_displace_crenel_ortho_axis
 _jana_atom_site_displace_crenel_ortho_id
 _jana_atom_site_displace_crenel_ortho_param_order
 _jana_atom_site_displace_crenel_ortho_param_coeff
 La1   x  1  1  0.00016(9)
 La1   y  1  1  0.03782(4)
 La1   z  1  1  0.00057(6)
 La1   x  1  2  0.00016(3)
 La1   y  1  2 -0.00065(4)
 La1   z  1  2  0.00054(4)
 O1    x  4  1 -0.0004(5)
 O1    y  4  1  0.0206(6)
 O1    z  4  1 -0.0095(5)
 O1    x  4  2  0.0005(3)
 O1    y  4  2  0.0087(5)
 O1    z  4  2  0.0042(6)
 O1    x  4  3  0.0012(7)
 O1    y  4  3 -0.0038(8)
 O1    z  4  3  0.0050(8)
 O1    x  4  4  0.0004(4)
 O1    y  4  4 -0.0064(6)
 O1    z  4  4 -0.0008(6)
 O1    x  4  5 -0.0011(8)
 O1    y  4  5  0.0071(10)
 O1    z  4  5  0.0039(10)
 O1    x  4  6  0
 O1    y  4  6  0
 O1    z  4  6  0
 O2    x  5  1  0.0019(3)
 O2    y  5  1  0.0348(5)
 O2    z  5  1  0.0016(4)
 O2    x  5  2 -0.0083(3)
 O2    y  5  2 -0.0044(4)
 O2    z  5  2  0.0137(5)
 O2    x  5  3  0.0056(4)
 O2    y  5  3 -0.0049(5)
 O2    z  5  3 -0.0064(5)
 O2    x  5  4  0.0029(3)
 O2    y  5  4  0.0083(5)
 O2    z  5  4 -0.0033(5)
 O2    x  5  5 -0.0073(4)
 O2    y  5  5  0.0070(6)
 O2    z  5  5  0.0031(6)
 O2    x  5  6  0
 O2    y  5  6  0
 O2    z  5  6  0
 O3    x  6  1 -0.0024(3)
 O3    y  6  1  0.0371(5)
 O3    z  6  1  0.0011(4)
 O3    x  6  2  0.0063(3)
 O3    y  6  2  0.0024(5)
 O3    z  6  2  0.0164(5)
 O3    x  6  3 -0.0059(4)
 O3    y  6  3 -0.0021(5)
 O3    z  6  3 -0.0069(5)
 O3    x  6  4 -0.0016(3)
 O3    y  6  4  0.0049(5)
 O3    z  6  4 -0.0035(5)
 O3    x  6  5  0.0067(4)
 O3    y  6  5  0.0032(6)
 O3    z  6  5  0.0032(6)
 O3    x  6  6  0
 O3    y  6  6  0
 O3    z  6  6  0

loop_
 _jana_atom_site_U_crenel_ortho_atom_site_label
 _jana_atom_site_U_crenel_ortho_tens_elem
 _jana_atom_site_U_crenel_ortho_id
 _jana_atom_site_U_crenel_ortho_param_order
 _jana_atom_site_U_crenel_ortho_param_coeff
 La1   U11  1  1  0.00030(6)
 La1   U22  1  1  0.00024(7)
 La1   U33  1  1  0.00087(9)
 La1   U12  1  1  0.00018(9)
 La1   U13  1  1  0.00001(6)
 La1   U23  1  1  0.00012(10)
 La1   U11  1  2  0.00057(7)
 La1   U22  1  2  0.00078(7)
 La1   U33  1  2 -0.00089(10)
 La1   U12  1  2 -0.00010(10)
 La1   U13  1  2  0.00026(15)
 La1   U23  1  2  0.00024(8)
 La1   U11  1  3 -0.00021(9)
 La1   U22  1  3  0.00073(10)
 La1   U33  1  3 -0.00026(13)
 La1   U12  1  3 -0.00011(8)
 La1   U13  1  3 -0.00010(9)
 La1   U23  1  3 -0.00062(17)
 La1   U11  1  4  0
 La1   U22  1  4  0
 La1   U33  1  4  0
 La1   U12  1  4  0
 La1   U13  1  4  0
 La1   U23  1  4  0


#=======================================================================

# 10. MOLECULAR GEOMETRY


loop_
 _geom_bond_atom_site_label_1
 _geom_bond_atom_site_label_2
 _geom_bond_site_ssg_symmetry_1
 _geom_bond_site_ssg_symmetry_2
 _geom_bond_distance_av
 _geom_bond_distance_min
 _geom_bond_distance_max
 _geom_bond_publ_flag
  La1 Ti11 . 1_5545 3.439(3) 3.439(3) 3.439(3) ?
  La1 Ti11 . . 3.364(3) 3.364(3) 3.364(3) ?
  La1 Ti11 . 6_5445 3.3287(19) 3.3287(19) 3.3287(19) ?
  La1 Fe11 . 1_5545 3.439(3) 3.439(3) 3.439(3) ?
  La1 Fe11 . . 3.364(3) 3.364(3) 3.364(3) ?
  La1 Fe11 . 6_5445 3.3287(19) 3.3287(19) 3.3287(19) ?
  La1 Ti13 . 6_5445 3.3203(14) 3.3203(14) 3.3203(14) ?
  La1 Fe13 . 6_5445 3.3203(14) 3.3203(14) 3.3203(14) ?
  La1 Ti21 . 1_4545 3.427(3) 3.427(3) 3.427(3) ?
  La1 Ti21 . 1_4555 3.349(3) 3.349(3) 3.349(3) ?
  La1 Ti21 . 6_5445 3.3405(19) 3.3405(19) 3.3405(19) ?
  La1 Fe21 . 1_4545 3.427(3) 3.427(3) 3.427(3) ?
  La1 Fe21 . 1_4555 3.349(3) 3.349(3) 3.349(3) ?
  La1 Fe21 . 6_5445 3.3405(19) 3.3405(19) 3.3405(19) ?
  La1 Ti23 . 6_5445 3.3325(14) 3.3325(14) 3.3325(14) ?
  La1 Fe23 . 6_5445 3.3325(14) 3.3325(14) 3.3325(14) ?
  La1 O1 . 1_5545 2.45(5) 2.43(2) 2.46(7) ?
  La1 O1 . . 3.13(5) 3.13(2) 3.14(7) ?
  La1 O2 . . 2.470(18) 2.418(18) 2.523(18) ?
  La1 O2 . 6_5545 3.197(18) 3.150(18) 3.244(18) ?
  La1 O3 . 1_4555 2.455(18) 2.414(17) 2.497(19) ?
  La1 O3 . 6_5545 3.207(18) 3.171(19) 3.243(17) ?
  La1 Ti121 . 5_5555 3.462(3) 3.462(3) 3.462(3) ?
  La1 Ti121 . 5_5565 3.360(3) 3.360(3) 3.360(3) ?
  La1 Fe121 . 5_5555 3.462(3) 3.462(3) 3.462(3) ?
  La1 Fe121 . 5_5565 3.360(3) 3.360(3) 3.360(3) ?
  La1 Ti221 . 5_5555 3.417(3) 3.417(3) 3.417(3) ?
  La1 Ti221 . 5_5565 3.330(3) 3.330(3) 3.330(3) ?
  La1 Fe221 . 5_5555 3.417(3) 3.417(3) 3.417(3) ?
  La1 Fe221 . 5_5565 3.330(3) 3.330(3) 3.330(3) ?
  La1 O11 . 2_5455 2.90(5) 2.72(7) 3.07(2) ?
  La1 O11 . 2_5555 3.00(5) 2.55(2) 3.44(7) ?
  La1 O21 . 5_5555 2.735(10) 2.649(2) 2.821(17) ?
  La1 O21 . 2_5455 2.904(10) 2.890(2) 2.918(17) ?
  La1 O31 . 5_5555 2.675(10) 2.614(2) 2.735(17) ?
  La1 O31 . 2_4455 2.895(10) 2.870(17) 2.920(2) ?
  La2 Ti13 . 1_5545 3.3922(17) 3.3922(17) 3.3922(17) ?
  La2 Ti13 . 8_5645 3.3455(9) 3.3455(9) 3.3455(9) ?
  La2 Fe13 . 1_5545 3.3922(17) 3.3922(17) 3.3922(17) ?
  La2 Fe13 . 8_5645 3.3455(9) 3.3455(9) 3.3455(9) ?
  La2 Ti23 . 1_4545 3.3848(16) 3.3848(16) 3.3848(16) ?
  La2 Fe23 . 1_4545 3.3848(16) 3.3848(16) 3.3848(16) ?
  La2 O1 . 1_5545 2.54(7) 2.54(7) 2.54(7) ?
  La2 O2 . . 2.45(2) 2.45(2) 2.45(2) ?
  La2 O2 . 3_4555 2.49(2) 2.49(2) 2.49(2) ?
  La2 O2 . 6_5545 2.44(2) 2.44(2) 2.44(2) ?
  La2 O2 . 8_5645 2.53(2) 2.53(2) 2.53(2) ?
  La2 O3 . 1_4555 2.40(2) 2.40(2) 2.40(2) ?
  La2 O3 . 6_5545 2.46(2) 2.46(2) 2.46(2) ?
  La2 O21 . 5_5555 3.210(17) 3.210(17) 3.210(17) ?
  La2 O31 . 5_5555 3.230(17) 3.230(17) 3.230(17) ?
  Ti11 O1 . . 2.00(2) 2.00(2) 2.00(2) ?
  Ti11 O2 . . 1.937(18) 1.937(18) 1.937(18) ?
  Ti11 O2 . 6_5555 2.016(18) 2.016(18) 2.016(18) ?
  Ti11 La11 . 5_5555 3.383(3) 3.383(3) 3.383(3) ?
  Ti11 La11 . 5_5565 3.408(3) 3.408(3) 3.408(3) ?
  Ti11 La11 . 2_5555 3.3482(19) 3.3482(19) 3.3482(19) ?
  Ti11 O11 . 5_5565 1.89(3) 1.89(3) 1.89(3) ?
  Ti11 O21 . 5_5565 1.940(3) 1.940(3) 1.940(3) ?
  Ti11 O21 . 2_5455 2.122(3) 2.122(3) 2.122(3) ?
  Fe11 O1 . . 2.00(2) 2.00(2) 2.00(2) ?
  Fe11 O2 . . 1.937(18) 1.937(18) 1.937(18) ?
  Fe11 O2 . 6_5555 2.016(18) 2.016(18) 2.016(18) ?
  Fe11 La11 . 5_5555 3.383(3) 3.383(3) 3.383(3) ?
  Fe11 La11 . 5_5565 3.408(3) 3.408(3) 3.408(3) ?
  Fe11 La11 . 2_5555 3.3482(19) 3.3482(19) 3.3482(19) ?
  Fe11 O11 . 5_5565 1.89(3) 1.89(3) 1.89(3) ?
  Fe11 O21 . 5_5565 1.940(3) 1.940(3) 1.940(3) ?
  Fe11 O21 . 2_5455 2.122(3) 2.122(3) 2.122(3) ?
  Ti13 O1 . . 2.00(8) 2.00(8) 2.00(8) ?
  Ti13 O2 . . 1.81(2) 1.81(2) 1.81(2) ?
  Ti13 O2 . 6_5555 1.87(2) 1.87(2) 1.87(2) ?
  Ti13 La11 . 2_5455 3.4485(13) 3.4485(13) 3.4485(13) ?
  Ti13 O11 . 5_5565 1.94(8) 1.94(8) 1.94(8) ?
  Ti13 O21 . 5_5565 2.272(17) 2.272(17) 2.272(17) ?
  Ti13 O21 . 2_5455 1.718(17) 1.718(17) 1.718(17) ?
  Fe13 O1 . . 2.00(8) 2.00(8) 2.00(8) ?
  Fe13 O2 . . 1.81(2) 1.81(2) 1.81(2) ?
  Fe13 O2 . 6_5555 1.87(2) 1.87(2) 1.87(2) ?
  Fe13 La11 . 2_5455 3.4485(13) 3.4485(13) 3.4485(13) ?
  Fe13 O11 . 5_5565 1.94(8) 1.94(8) 1.94(8) ?
  Fe13 O21 . 5_5565 2.272(17) 2.272(17) 2.272(17) ?
  Fe13 O21 . 2_5455 1.718(17) 1.718(17) 1.718(17) ?
  Ti21 O1 . 1_6555 1.98(2) 1.98(2) 1.98(2) ?
  Ti21 O3 . . 1.934(18) 1.934(18) 1.934(18) ?
  Ti21 O3 . 6_6555 2.029(19) 2.029(19) 2.029(19) ?
  Ti21 La11 . 5_5555 3.390(3) 3.390(3) 3.390(3) ?
  Ti21 La11 . 5_5565 3.418(3) 3.418(3) 3.418(3) ?
  Ti21 La11 . 2_6455 3.4897(18) 3.4897(18) 3.4897(18) ?
  Ti21 La11 . 2_6555 3.3351(19) 3.3351(19) 3.3351(19) ?
  Ti21 O11 . 5_5565 2.10(3) 2.10(3) 2.10(3) ?
  Ti21 O31 . 5_6565 1.977(3) 1.977(3) 1.977(3) ?
  Ti21 O31 . 2_5455 2.089(3) 2.089(3) 2.089(3) ?
  Fe21 O1 . 1_6555 1.98(2) 1.98(2) 1.98(2) ?
  Fe21 O3 . . 1.934(18) 1.934(18) 1.934(18) ?
  Fe21 O3 . 6_6555 2.029(19) 2.029(19) 2.029(19) ?
  Fe21 La11 . 5_5555 3.390(3) 3.390(3) 3.390(3) ?
  Fe21 La11 . 5_5565 3.418(3) 3.418(3) 3.418(3) ?
  Fe21 La11 . 2_6455 3.4897(18) 3.4897(18) 3.4897(18) ?
  Fe21 La11 . 2_6555 3.3351(19) 3.3351(19) 3.3351(19) ?
  Fe21 O11 . 5_5565 2.10(3) 2.10(3) 2.10(3) ?
  Fe21 O31 . 5_6565 1.977(3) 1.977(3) 1.977(3) ?
  Fe21 O31 . 2_5455 2.089(3) 2.089(3) 2.089(3) ?
  Ti23 O1 . 1_6555 2.01(8) 2.01(8) 2.01(8) ?
  Ti23 O3 . . 1.76(2) 1.76(2) 1.76(2) ?
  Ti23 O3 . 6_6555 1.88(2) 1.88(2) 1.88(2) ?
  Ti23 La11 . 2_6455 3.4916(13) 3.4916(13) 3.4916(13) ?
  Ti23 La31 . 5_5555 3.4985(17) 3.4985(17) 3.4985(17) ?
  Ti23 La31 . 5_5565 3.4695(17) 3.4695(17) 3.4695(17) ?
  Ti23 O11 . 5_5565 2.05(8) 2.05(8) 2.05(8) ?
  Ti23 O31 . 5_6565 2.306(17) 2.306(17) 2.306(17) ?
  Ti23 O31 . 2_5455 1.853(18) 1.853(18) 1.853(18) ?
  Fe23 O1 . 1_6555 2.01(8) 2.01(8) 2.01(8) ?
  Fe23 O3 . . 1.76(2) 1.76(2) 1.76(2) ?
  Fe23 O3 . 6_6555 1.88(2) 1.88(2) 1.88(2) ?
  Fe23 La11 . 2_6455 3.4916(13) 3.4916(13) 3.4916(13) ?
  Fe23 La31 . 5_5555 3.4985(17) 3.4985(17) 3.4985(17) ?
  Fe23 La31 . 5_5565 3.4695(17) 3.4695(17) 3.4695(17) ?
  Fe23 O11 . 5_5565 2.05(8) 2.05(8) 2.05(8) ?
  Fe23 O31 . 5_6565 2.306(17) 2.306(17) 2.306(17) ?
  Fe23 O31 . 2_5455 1.853(18) 1.853(18) 1.853(18) ?
  O1 O2 . . 2.83(6) 2.74(8) 2.95(8) ?
  O1 O2 . 6_5555 2.78(6) 2.77(8) 2.80(3) ?
  O1 O3 . 1_4555 2.81(6) 2.72(8) 2.91(8) ?
  O1 O3 . 6_5555 2.79(6) 2.74(8) 2.82(3) ?
  O1 La11 . 2_5455 2.79(5) 2.61(7) 2.96(2) ?
  O1 La11 . 2_5555 2.58(5) 2.46(7) 2.70(2) ?
  O1 Ti121 . 5_5565 2.06(8) 2.06(8) 2.06(8) ?
  O1 Fe121 . 5_5565 2.06(8) 2.06(8) 2.06(8) ?
  O1 Ti221 . 5_5565 1.98(8) 1.98(8) 1.98(8) ?
  O1 Fe221 . 5_5565 1.98(8) 1.98(8) 1.98(8) ?
  O1 O11 . 2_5465 3.54(8) 2.72(10) 3.96(10) ?
  O1 O11 . 2_5565 3.37(7) 3.18(7) 3.57(7) ?
  O1 O21 . 5_5565 2.81(6) 2.63(8) 3.08(8) ?
  O1 O21 . 2_5455 2.79(6) 2.40(8) 3.04(8) ?
  O1 O31 . 5_5565 2.80(6) 2.68(8) 3.00(8) ?
  O1 O31 . 2_4455 2.78(6) 2.45(8) 2.97(8) ?
  O2 O2 . 3_4555 2.85(3) 2.85(3) 2.85(3) ?
  O2 O2 . 7_5455 2.85(3) 2.85(3) 2.85(3) ?
  O2 O2 . 6_5545 2.82(3) 2.73(3) 2.88(2) ?
  O2 O2 . 6_5555 2.82(3) 2.73(3) 2.88(2) ?
  O2 O3 . 1_4555 3.55(3) 3.40(2) 3.69(3) ?
  O2 O3 . 3_4555 2.94(3) 2.94(3) 2.94(3) ?
  O2 O3 . 7_4455 2.76(3) 2.76(3) 2.76(3) ?
  O2 La11 . 5_5555 2.763(18) 2.741(18) 2.785(18) ?
  O2 La11 . 2_5555 2.744(18) 2.714(18) 2.773(18) ?
  O2 La31 . 5_5555 2.51(2) 2.51(2) 2.51(2) ?
  O2 La31 . 2_5555 2.44(2) 2.44(2) 2.44(2) ?
  O2 Ti121 . 5_5565 2.012(18) 2.012(18) 2.012(18) ?
  O2 Ti121 . 2_5555 2.168(19) 2.168(19) 2.168(19) ?
  O2 Fe121 . 5_5565 2.012(18) 2.012(18) 2.012(18) ?
  O2 Fe121 . 2_5555 2.168(19) 2.168(19) 2.168(19) ?
  O2 O11 . 5_5565 2.81(6) 2.69(3) 2.92(8) ?
  O2 O11 . 2_5555 2.76(6) 2.41(8) 3.43(8) ?
  O2 O21 . 5_5555 3.35(2) 3.252(19) 3.53(2) ?
  O2 O21 . 2_5455 2.78(2) 2.61(3) 2.951(19) ?
  O2 O21 . 2_5555 2.78(2) 2.593(18) 3.00(3) ?
  O3 O3 . 3_4555 2.85(3) 2.85(3) 2.85(3) ?
  O3 O3 . 7_5455 2.85(3) 2.85(3) 2.85(3) ?
  O3 O3 . 6_6545 2.84(3) 2.73(3) 2.92(3) ?
  O3 O3 . 6_6555 2.84(3) 2.73(3) 2.92(3) ?
  O3 La11 . 5_5555 2.754(18) 2.720(17) 2.787(19) ?
  O3 La11 . 2_6555 2.751(18) 2.711(19) 2.790(17) ?
  O3 La31 . 3_5455 2.52(2) 2.52(2) 2.52(2) ?
  O3 La31 . 5_5555 2.45(2) 2.45(2) 2.45(2) ?
  O3 La31 . 2_6555 2.47(2) 2.47(2) 2.47(2) ?
  O3 La31 . 4_5655 3.06(2) 3.06(2) 3.06(2) ?
  O3 Ti221 . 5_6565 2.023(19) 2.023(19) 2.023(19) ?
  O3 Ti221 . 2_5555 2.186(18) 2.186(18) 2.186(18) ?
  O3 Fe221 . 5_6565 2.023(19) 2.023(19) 2.023(19) ?
  O3 Fe221 . 2_5555 2.186(18) 2.186(18) 2.186(18) ?
  O3 O11 . 5_5565 2.85(6) 2.79(8) 2.93(8) ?
  O3 O11 . 2_6555 2.81(6) 2.54(8) 3.34(8) ?
  O3 O31 . 5_6555 3.25(2) 3.15(3) 3.39(3) ?
  O3 O31 . 2_5455 2.79(2) 2.67(3) 2.940(18) ?
  O3 O31 . 2_5555 2.78(2) 2.623(19) 2.88(2) ?
  La11 Ti121 . . 3.415(3) 3.415(3) 3.415(3) ?
  La11 Ti121 . 1_5565 3.361(3) 3.361(3) 3.361(3) ?
  La11 Ti121 . 6_4555 3.417(3) 3.417(3) 3.417(3) ?
  La11 Fe121 . . 3.415(3) 3.415(3) 3.415(3) ?
  La11 Fe121 . 1_5565 3.361(3) 3.361(3) 3.361(3) ?
  La11 Fe121 . 6_4555 3.417(3) 3.417(3) 3.417(3) ?
  La11 Ti221 . 1_6555 3.440(3) 3.440(3) 3.440(3) ?
  La11 Ti221 . 1_6565 3.403(3) 3.403(3) 3.403(3) ?
  La11 Ti221 . 6_4555 3.396(3) 3.396(3) 3.396(3) ?
  La11 Fe221 . 1_6555 3.440(3) 3.440(3) 3.440(3) ?
  La11 Fe221 . 1_6565 3.403(3) 3.403(3) 3.403(3) ?
  La11 Fe221 . 6_4555 3.396(3) 3.396(3) 3.396(3) ?
  La11 O11 . . 3.26(5) 2.89(2) 3.63(7) ?
  La11 O11 . 1_5565 2.36(5) 2.03(7) 2.69(2) ?
  La11 O21 . . 2.388(10) 2.367(2) 2.409(17) ?
  La11 O21 . 6_4455 3.144(10) 2.978(17) 3.311(2) ?
  La11 O31 . 1_6555 2.344(10) 2.321(17) 2.368(2) ?
  La11 O31 . 6_4455 3.178(10) 3.052(17) 3.303(2) ?
  La31 O11 . . 2.59(7) 2.59(7) 2.59(7) ?
  La31 O11 . 1_5565 3.17(7) 3.17(7) 3.17(7) ?
  La31 O21 . . 3.067(17) 3.067(17) 3.067(17) ?
  La31 O31 . 1_6555 2.968(17) 2.968(17) 2.968(17) ?
  Ti121 O11 . . 2.20(8) 2.20(8) 2.20(8) ?
  Ti121 O21 . . 2.134(17) 2.134(17) 2.134(17) ?
  Ti121 O21 . 6_4445 1.756(17) 1.756(17) 1.756(17) ?
  Fe121 O11 . . 2.20(8) 2.20(8) 2.20(8) ?
  Fe121 O21 . . 2.134(17) 2.134(17) 2.134(17) ?
  Fe121 O21 . 6_4445 1.756(17) 1.756(17) 1.756(17) ?
  Ti221 O11 . 1_4555 2.08(8) 2.08(8) 2.08(8) ?
  Ti221 O31 . . 2.071(18) 2.071(18) 2.071(18) ?
  Ti221 O31 . 6_3445 1.750(18) 1.750(18) 1.750(18) ?
  Fe221 O11 . 1_4555 2.08(8) 2.08(8) 2.08(8) ?
  Fe221 O31 . . 2.071(18) 2.071(18) 2.071(18) ?
  Fe221 O31 . 6_3445 1.750(18) 1.750(18) 1.750(18) ?
  O11 O21 . . 2.92(6) 2.75(2) 3.16(8) ?
  O11 O21 . 6_4445 2.79(6) 2.28(8) 3.17(2) ?
  O11 O31 . 1_6545 4.17(6) 3.47(8) 4.60(8) ?
  O11 O31 . 1_6555 2.95(6) 2.89(8) 3.06(8) ?
  O11 O31 . 6_4445 2.85(6) 2.20(8) 3.27(2) ?
  O21 O21 . 6_4445 2.834(17) 2.77(2) 2.912(3) ?
  O21 O21 . 6_4455 2.834(17) 2.77(2) 2.912(3) ?
  O21 O31 . 1_6555 3.552(17) 3.26(2) 3.91(2) ?
  O31 O31 . 6_3445 2.845(18) 2.78(2) 2.900(3) ?
  O31 O31 . 6_3455 2.845(18) 2.78(2) 2.900(3) ?

#=======================================================================
data_n6_250K
#=======================================================================

# 5. CHEMICAL DATA

_chemical_name_systematic
?
_chemical_name_common                    ?
_chemical_formula_moiety                 ?
_chemical_formula_structural             ?
_chemical_formula_analytical             ?
_chemical_formula_iupac                  ?
_chemical_formula_sum                    'Fe0.571 La3.429 O11.429 Ti2.858'
_chemical_formula_weight                 827.9
_chemical_melting_point                  ?
_chemical_compound_source                ?
_chemical_absolute_configuration         .

#=======================================================================

# 6. CRYSTAL DATA

_symmetry_cell_setting                   monoclinic
_space_group_ssg_name                    'X21/b(\a\b0)00'
loop_
 _space_group_symop_ssg_id
 _space_group_symop_ssg_operation_algebraic
 1   x1,x2,x3,x4
 2   -x1+1/4,-x2,x3+1/2,-x4+1/4
 3   -x1,-x2,-x3,-x4+1/2
 4   x1,x2+1/2,-x3+1/2,x4
 5   x1+3/4,x2+1/2,x3,x4+1/4
 6   -x1,-x2+1/2,x3+1/2,-x4+1/2
 7   -x1+3/4,-x2+1/2,-x3,-x4+3/4
 8   x1+3/4,x2,-x3+1/2,x4+1/4
 9   x1+1/2,x2,x3,x4+1/2
 10  -x1+3/4,-x2,x3+1/2,-x4+3/4
 11  -x1+1/2,-x2,-x3,-x4
 12  x1+1/2,x2+1/2,-x3+1/2,x4+1/2
 13  x1+1/4,x2+1/2,x3,x4+3/4
 14  -x1+1/2,-x2+1/2,x3+1/2,-x4
 15  -x1+1/4,-x2+1/2,-x3,-x4+1/4
 16  x1+1/4,x2,-x3+1/2,x4+3/4
_cell_length_a                           7.8302(19)
_cell_length_b                           5.2737(16)
_cell_length_c                           5.5518(18)
_cell_angle_alpha                        90
_cell_angle_beta                         90
_cell_angle_gamma                        90.001(18)
_cell_volume                             229.26(12)

loop_
 _jana_cell_twin_matrix_id
 _jana_cell_twin_volume_fraction
 _jana_cell_twin_matrix_1_1
 _jana_cell_twin_matrix_1_2
 _jana_cell_twin_matrix_1_3
 _jana_cell_twin_matrix_2_1
 _jana_cell_twin_matrix_2_2
 _jana_cell_twin_matrix_2_3
 _jana_cell_twin_matrix_3_1
 _jana_cell_twin_matrix_3_2
 _jana_cell_twin_matrix_3_3
1 0.5908(10)
1 0 0
0 1 0
0 0 1
2 0.4092(10)
1 0 0
0 -1 0
0 0 -1

_cell_modulation_dimension               1
loop_
 _cell_wave_vector_seq_id
 _cell_wave_vector_x
 _cell_wave_vector_y
 _cell_wave_vector_z
 1  0.000000  0.071429  0.000000

_jana_cell_commen_supercell_matrix_1_1   1
_jana_cell_commen_supercell_matrix_1_2   0
_jana_cell_commen_supercell_matrix_1_3   0
_jana_cell_commen_supercell_matrix_2_1   0
_jana_cell_commen_supercell_matrix_2_2   14
_jana_cell_commen_supercell_matrix_2_3   0
_jana_cell_commen_supercell_matrix_3_1   0
_jana_cell_commen_supercell_matrix_3_2   0
_jana_cell_commen_supercell_matrix_3_3   1

_jana_cell_commen_t_section_1            0.018

_cell_formula_units_Z                    1

_cell_measurement_reflns_used            0
_cell_measurement_theta_min              ?
_cell_measurement_theta_max              ?
_cell_measurement_temperature            250
_cell_special_details
?

_exptl_crystal_density_diffrn            5.9946
_exptl_crystal_density_meas              ?
_exptl_crystal_density_method            ?
_exptl_crystal_F_000                     367

_exptl_absorpt_coefficient_mu            18.905
_exptl_crystal_description               'thick plate'
_exptl_crystal_size_max                  0.12
_exptl_crystal_size_mid                  0.08
_exptl_crystal_size_min                  0.005
_exptl_crystal_size_rad                  ?
_exptl_crystal_colour                    'metallic gray'
_exptl_absorpt_correction_type           numerical
_exptl_absorpt_process_details           'SADABS (version2008/1)'
_exptl_absorpt_correction_T_min          0.3434
_exptl_absorpt_correction_T_max          0.7477

#=======================================================================

# 7. EXPERIMENTAL DATA

_exptl_special_details                   ?

_diffrn_ambient_temperature              250
_diffrn_source                           ?
_diffrn_source_power                     ?
_diffrn_source_voltage                   55
_diffrn_source_current                   75
_diffrn_radiation_type                   'Mo K\a'
_diffrn_radiation_source                 'rotating anode X-ray tube'
_diffrn_radiation_wavelength             0.71069
_diffrn_radiation_monochromator          graphite
_diffrn_measurement_device               'Image-Plate diffractometer'
_diffrn_measurement_device_type          'MarResearch Mar345dtb'
_diffrn_detector                         'MarResearch Mar345'
_diffrn_detector_area_resol_mean         ?
_diffrn_measurement_method               'Rotating, \f scans'
_diffrn_measurement_specimen_support     ?

_diffrn_reflns_number                    56192
_diffrn_reflns_theta_min                 2.21
_diffrn_reflns_theta_max                 39.29
_diffrn_reflns_theta_full                33.74
_diffrn_measured_fraction_theta_max      0.88
_diffrn_measured_fraction_theta_full     0.98
_diffrn_reflns_av_R_equivalents          0.047
_diffrn_reflns_av_sigmaI/netI            0.0367
_diffrn_reflns_limit_h_min               -13
_diffrn_reflns_limit_h_max               13
_diffrn_reflns_limit_k_min               -9
_diffrn_reflns_limit_k_max               9
_diffrn_reflns_limit_l_min               -8
_diffrn_reflns_limit_l_max               8
_diffrn_reflns_limit_index_m_1_min       -7
_diffrn_reflns_limit_index_m_1_max       7
_diffrn_reflns_reduction_process         ?

_diffrn_standards_number                 ?
_diffrn_standards_interval_count         ?
_diffrn_standards_interval_time          ?
_diffrn_standards_decay_%                ?
loop_
_diffrn_standard_refln_index_h
_diffrn_standard_refln_index_k
_diffrn_standard_refln_index_l
  ? ? ?

_diffrn_radiation_probe                  x-ray

#=======================================================================

# 8. REFINEMENT DATA

_refine_special_details
?

_reflns_number_total                     12311
_reflns_number_gt                        11385
_reflns_threshold_expression             'I>3\s(I)'

_refine_ls_structure_factor_coef         F
_refine_ls_R_factor_gt                   0.0625
_refine_ls_wR_factor_gt                  0.0821
_refine_ls_R_factor_all                  0.0677
_refine_ls_wR_factor_ref                 0.0829
_refine_ls_goodness_of_fit_ref           3.22
_refine_ls_goodness_of_fit_gt            3.32
_refine_ls_restrained_S_gt               ?
_refine_ls_restrained_S_all              ?
_refine_ls_number_reflns                 12311
_refine_ls_number_parameters             161
_refine_ls_number_restraints             0
_refine_ls_number_constraints            8
_refine_ls_weighting_scheme              sigma
_refine_ls_weighting_details             'w=1/(\s^2^(F)+0.0001F^2^)'
_refine_ls_hydrogen_treatment            ?
_refine_ls_shift/su_max                  0.0027
_refine_ls_shift/su_mean                 0.0004
_refine_diff_density_max                 18.95
_refine_diff_density_min                 -4.56
_refine_ls_extinction_method             'none'
_refine_ls_extinction_coef               ?
_refine_ls_abs_structure_details         ?
_refine_ls_abs_structure_Flack           ?
_refine_ls_abs_structure_Rogers          ?

loop_
 _atom_type_symbol
 _atom_type_scat_dispersion_real
 _atom_type_scat_dispersion_imag
 _atom_type_scat_source
 Fe  0.3463  0.8444
 'International Tables Vol C tables 4.2.6.8 and 6.1.1.1'
 La -0.2871  2.4523
 'International Tables Vol C tables 4.2.6.8 and 6.1.1.1'
 O   0.0106  0.0060
 'International Tables Vol C tables 4.2.6.8 and 6.1.1.1'
 Ti  0.2776  0.4457
 'International Tables Vol C tables 4.2.6.8 and 6.1.1.1'

_computing_data_collection               ?
_computing_cell_refinement               ?
_computing_data_reduction                ?
_computing_structure_solution            ?
_computing_structure_refinement          ?
_computing_molecular_graphics            ?
_computing_publication_material          ?

#=======================================================================

# 9. ATOMIC COORDINATES AND DISPLACEMENT PARAMETERS

loop_
 _atom_site_label
 _atom_site_type_symbol
 _atom_site_fract_x
 _atom_site_fract_y
 _atom_site_fract_z
 _atom_site_adp_type
 _atom_site_U_iso_or_equiv
 _atom_site_symmetry_multiplicity
 _atom_site_occupancy
 _atom_site_calc_flag
 _atom_site_refinement_flags
 _atom_site_disorder_assembly
 _atom_site_disorder_group
  La1 La -0.00026(2) -0.01780(4) 0.00263(4) Uani 0.00683(6) 16 0.1429 d . . .
  La2 La -0.00144(10) 0.29660(8) -0.08968(13) Uani 0.00742(9) 16 0.0357 d . . .
  La3 La -0.00272(10) -0.23236(10) 0.04847(14) Uani 0.01283(12) 16 0.0357 d . .
 .
  Ti11 Ti 0.25 0 0.5 Uani 0.00481(19) 8 0.023(2) d . . .
  Fe11 Fe 0.25 0 0.5 Uani 0.00481(19) 8 0.049(2) d . . .
  Ti12 Ti 0.25 0 0.5 Uani 0.00481(19) 16 0.0270(10) d . . .
  Fe12 Fe 0.25 0 0.5 Uani 0.00481(19) 16 0.0087(10) d . . .
  Ti13 Ti 0.25 0 0.5 Uani 0.00481(19) 16 0.0344(9) d . . .
  Fe13 Fe 0.25 0 0.5 Uani 0.00481(19) 16 0.0013(9) d . . .
  Ti21 Ti 0.75 0 0.5 Uani 0.00458(19) 8 0.023(2) d . . .
  Fe21 Fe 0.75 0 0.5 Uani 0.00458(19) 8 0.049(2) d . . .
  Ti22 Ti 0.75 0 0.5 Uani 0.00458(19) 16 0.0268(10) d . . .
  Fe22 Fe 0.75 0 0.5 Uani 0.00458(19) 16 0.0089(10) d . . .
  Ti23 Ti 0.75 0 0.5 Uani 0.00458(19) 16 0.0333(9) d . . .
  Fe23 Fe 0.75 0 0.5 Uani 0.00458(19) 16 0.0024(9) d . . .
  O1 O -0.0003(3) 0.0068(4) 0.5569(5) Uani 0.0093(5) 16 0.2143 d . . .
  O2 O 0.2251(3) 0.2143(5) 0.2101(4) Uani 0.0085(5) 16 0.25 d . . .
  O3 O 0.7762(3) 0.2078(4) 0.2057(4) Uani 0.0081(5) 16 0.25 d . . .

loop_
 _atom_site_aniso_label
 _atom_site_aniso_type_symbol
 _atom_site_aniso_U_11
 _atom_site_aniso_U_22
 _atom_site_aniso_U_33
 _atom_site_aniso_U_12
 _atom_site_aniso_U_13
 _atom_site_aniso_U_23
 La1 La 0.00348(10) 0.01109(8) 0.00590(13) 0.00025(9) -0.00016(12) -0.00136(6)
 La2 La 0.00265(13) 0.01445(15) 0.00517(19) -0.00051(18) -0.00054(16)
 -0.00186(13)
 La3 La 0.00273(15) 0.0237(2) 0.0121(3) 0.0004(2) -0.00048(19) -0.00631(16)
 Ti11 Ti 0.0037(3) 0.0081(2) 0.0026(4) -0.0026(5) -0.0001(4) -0.00023(19)
 Fe11 Fe 0.0037(3) 0.0081(2) 0.0026(4) -0.0026(5) -0.0001(4) -0.00023(19)
 Ti12 Ti 0.0037(3) 0.0081(2) 0.0026(4) -0.0026(5) -0.0001(4) -0.00023(19)
 Fe12 Fe 0.0037(3) 0.0081(2) 0.0026(4) -0.0026(5) -0.0001(4) -0.00023(19)
 Ti13 Ti 0.0037(3) 0.0081(2) 0.0026(4) -0.0026(5) -0.0001(4) -0.00023(19)
 Fe13 Fe 0.0037(3) 0.0081(2) 0.0026(4) -0.0026(5) -0.0001(4) -0.00023(19)
 Ti21 Ti 0.0036(3) 0.0077(2) 0.0025(4) -0.0026(5) 0.0000(4) 0.00059(19)
 Fe21 Fe 0.0036(3) 0.0077(2) 0.0025(4) -0.0026(5) 0.0000(4) 0.00059(19)
 Ti22 Ti 0.0036(3) 0.0077(2) 0.0025(4) -0.0026(5) 0.0000(4) 0.00059(19)
 Fe22 Fe 0.0036(3) 0.0077(2) 0.0025(4) -0.0026(5) 0.0000(4) 0.00059(19)
 Ti23 Ti 0.0036(3) 0.0077(2) 0.0025(4) -0.0026(5) 0.0000(4) 0.00059(19)
 Fe23 Fe 0.0036(3) 0.0077(2) 0.0025(4) -0.0026(5) 0.0000(4) 0.00059(19)
 O1 O 0.0004(8) 0.0169(8) 0.0105(11) 0.0013(8) -0.0006(6) 0.0003(7)
 O2 O 0.0083(10) 0.0145(8) 0.0028(9) -0.0005(7) 0.0000(7) 0.0026(7)
 O3 O 0.0074(10) 0.0138(8) 0.0031(9) 0.0008(7) 0.0010(6) 0.0026(6)


loop_
 _atom_site_Fourier_wave_vector_seq_id
 _jana_atom_site_Fourier_wave_vector_q1_coeff
    1    1
    2    2
    3    3
    4    4
    5    5
    6    6
    7    7
    8    8
    9    9
   10   10
   11   11
   12   12

loop_
 _jana_atom_site_crenel_ortho_func_id
 _jana_atom_site_crenel_ortho_func_c
 _jana_atom_site_crenel_ortho_func_w
 _jana_atom_site_crenel_ortho_func_eps
 1  0.000000  0.142857  0.950000
 2  0.110477  0.035714  0.950000
 3 -0.105891  0.035714  0.950000
 4  0.000000  0.214286  0.950000
 5  0.000000  0.250000  0.950000
 6  0.000000  0.250000  0.950000


loop_
 _atom_site_occ_special_func_atom_site_label
 _atom_site_occ_special_func_crenel_c
 _atom_site_occ_special_func_crenel_w
 La1  0  0.1429
 La2  0.110477(6)  0.0357
 La3 -0.105891(7)  0.0357
 Ti11  0  0.0714
 Fe11  0  0.0714
 Ti12  0.0536  0.0357
 Fe12  0.0536  0.0357
 Ti13  0.0893  0.0357
 Fe13  0.0893  0.0357
 Ti21  0  0.0714
 Fe21  0  0.0714
 Ti22  0.0536  0.0357
 Fe22  0.0536  0.0357
 Ti23  0.0893  0.0357
 Fe23  0.0893  0.0357
 O1  0  0.2143
 O2  0  0.25
 O3  0  0.25

loop_
 _atom_site_displace_Fourier_atom_site_label
 _atom_site_displace_Fourier_axis
 _atom_site_displace_Fourier_wave_vector_seq_id
 _atom_site_displace_Fourier_param_cos
 _atom_site_displace_Fourier_param_sin
 Ti11  x  1     0               -0.0072(7)
 Ti11  y  1     0                0.1430(4)
 Ti11  z  1     0               -0.0599(5)
 Ti11  x  2     0                0
 Ti11  y  2     0                0
 Ti11  z  2     0                0
 Ti11  x  3     0                0
 Ti11  y  3     0                0
 Ti11  z  3     0                0
 Ti11  x  4     0                0
 Ti11  y  4     0                0
 Ti11  z  4     0                0
 Ti11  x  5     0                0
 Ti11  y  5     0                0
 Ti11  z  5     0                0
 Ti11  x  6     0                0.0006(3)
 Ti11  y  6     0                0.01101(19)
 Ti11  z  6     0                0.0219(2)
 Ti11  x  7     0                0
 Ti11  y  7     0                0
 Ti11  z  7     0                0
 Ti11  x  8     0                0
 Ti11  y  8     0                0
 Ti11  z  8     0                0
 Ti11  x  9     0                0
 Ti11  y  9     0                0
 Ti11  z  9     0                0
 Ti11  x 10     0                0
 Ti11  y 10     0                0
 Ti11  z 10     0                0
 Ti11  x 11     0                0
 Ti11  y 11     0                0
 Ti11  z 11     0                0
 Ti11  x 12     0                0.0011(2)
 Ti11  y 12     0               -0.00819(15)
 Ti11  z 12     0               -0.0119(3)
 Fe11  x  1     0               -0.0072(7)
 Fe11  y  1     0                0.1430(4)
 Fe11  z  1     0               -0.0599(5)
 Fe11  x  2     0                0
 Fe11  y  2     0                0
 Fe11  z  2     0                0
 Fe11  x  3     0                0
 Fe11  y  3     0                0
 Fe11  z  3     0                0
 Fe11  x  4     0                0
 Fe11  y  4     0                0
 Fe11  z  4     0                0
 Fe11  x  5     0                0
 Fe11  y  5     0                0
 Fe11  z  5     0                0
 Fe11  x  6     0                0.0006(3)
 Fe11  y  6     0                0.01101(19)
 Fe11  z  6     0                0.0219(2)
 Fe11  x  7     0                0
 Fe11  y  7     0                0
 Fe11  z  7     0                0
 Fe11  x  8     0                0
 Fe11  y  8     0                0
 Fe11  z  8     0                0
 Fe11  x  9     0                0
 Fe11  y  9     0                0
 Fe11  z  9     0                0
 Fe11  x 10     0                0
 Fe11  y 10     0                0
 Fe11  z 10     0                0
 Fe11  x 11     0                0
 Fe11  y 11     0                0
 Fe11  z 11     0                0
 Fe11  x 12     0                0.0011(2)
 Fe11  y 12     0               -0.00819(15)
 Fe11  z 12     0               -0.0119(3)
 Ti12  x  1     0               -0.0072(7)
 Ti12  y  1     0                0.1430(4)
 Ti12  z  1     0               -0.0599(5)
 Ti12  x  2     0                0
 Ti12  y  2     0                0
 Ti12  z  2     0                0
 Ti12  x  3     0                0
 Ti12  y  3     0                0
 Ti12  z  3     0                0
 Ti12  x  4     0                0
 Ti12  y  4     0                0
 Ti12  z  4     0                0
 Ti12  x  5     0                0
 Ti12  y  5     0                0
 Ti12  z  5     0                0
 Ti12  x  6     0                0.0006(3)
 Ti12  y  6     0                0.01101(19)
 Ti12  z  6     0                0.0219(2)
 Ti12  x  7     0                0
 Ti12  y  7     0                0
 Ti12  z  7     0                0
 Ti12  x  8     0                0
 Ti12  y  8     0                0
 Ti12  z  8     0                0
 Ti12  x  9     0                0
 Ti12  y  9     0                0
 Ti12  z  9     0                0
 Ti12  x 10     0                0
 Ti12  y 10     0                0
 Ti12  z 10     0                0
 Ti12  x 11     0                0
 Ti12  y 11     0                0
 Ti12  z 11     0                0
 Ti12  x 12     0                0.0011(2)
 Ti12  y 12     0               -0.00819(15)
 Ti12  z 12     0               -0.0119(3)
 Fe12  x  1     0               -0.0072(7)
 Fe12  y  1     0                0.1430(4)
 Fe12  z  1     0               -0.0599(5)
 Fe12  x  2     0                0
 Fe12  y  2     0                0
 Fe12  z  2     0                0
 Fe12  x  3     0                0
 Fe12  y  3     0                0
 Fe12  z  3     0                0
 Fe12  x  4     0                0
 Fe12  y  4     0                0
 Fe12  z  4     0                0
 Fe12  x  5     0                0
 Fe12  y  5     0                0
 Fe12  z  5     0                0
 Fe12  x  6     0                0.0006(3)
 Fe12  y  6     0                0.01101(19)
 Fe12  z  6     0                0.0219(2)
 Fe12  x  7     0                0
 Fe12  y  7     0                0
 Fe12  z  7     0                0
 Fe12  x  8     0                0
 Fe12  y  8     0                0
 Fe12  z  8     0                0
 Fe12  x  9     0                0
 Fe12  y  9     0                0
 Fe12  z  9     0                0
 Fe12  x 10     0                0
 Fe12  y 10     0                0
 Fe12  z 10     0                0
 Fe12  x 11     0                0
 Fe12  y 11     0                0
 Fe12  z 11     0                0
 Fe12  x 12     0                0.0011(2)
 Fe12  y 12     0               -0.00819(15)
 Fe12  z 12     0               -0.0119(3)
 Ti13  x  1     0               -0.0072(7)
 Ti13  y  1     0                0.1430(4)
 Ti13  z  1     0               -0.0599(5)
 Ti13  x  2     0                0
 Ti13  y  2     0                0
 Ti13  z  2     0                0
 Ti13  x  3     0                0
 Ti13  y  3     0                0
 Ti13  z  3     0                0
 Ti13  x  4     0                0
 Ti13  y  4     0                0
 Ti13  z  4     0                0
 Ti13  x  5     0                0
 Ti13  y  5     0                0
 Ti13  z  5     0                0
 Ti13  x  6     0                0.0006(3)
 Ti13  y  6     0                0.01101(19)
 Ti13  z  6     0                0.0219(2)
 Ti13  x  7     0                0
 Ti13  y  7     0                0
 Ti13  z  7     0                0
 Ti13  x  8     0                0
 Ti13  y  8     0                0
 Ti13  z  8     0                0
 Ti13  x  9     0                0
 Ti13  y  9     0                0
 Ti13  z  9     0                0
 Ti13  x 10     0                0
 Ti13  y 10     0                0
 Ti13  z 10     0                0
 Ti13  x 11     0                0
 Ti13  y 11     0                0
 Ti13  z 11     0                0
 Ti13  x 12     0                0.0011(2)
 Ti13  y 12     0               -0.00819(15)
 Ti13  z 12     0               -0.0119(3)
 Fe13  x  1     0               -0.0072(7)
 Fe13  y  1     0                0.1430(4)
 Fe13  z  1     0               -0.0599(5)
 Fe13  x  2     0                0
 Fe13  y  2     0                0
 Fe13  z  2     0                0
 Fe13  x  3     0                0
 Fe13  y  3     0                0
 Fe13  z  3     0                0
 Fe13  x  4     0                0
 Fe13  y  4     0                0
 Fe13  z  4     0                0
 Fe13  x  5     0                0
 Fe13  y  5     0                0
 Fe13  z  5     0                0
 Fe13  x  6     0                0.0006(3)
 Fe13  y  6     0                0.01101(19)
 Fe13  z  6     0                0.0219(2)
 Fe13  x  7     0                0
 Fe13  y  7     0                0
 Fe13  z  7     0                0
 Fe13  x  8     0                0
 Fe13  y  8     0                0
 Fe13  z  8     0                0
 Fe13  x  9     0                0
 Fe13  y  9     0                0
 Fe13  z  9     0                0
 Fe13  x 10     0                0
 Fe13  y 10     0                0
 Fe13  z 10     0                0
 Fe13  x 11     0                0
 Fe13  y 11     0                0
 Fe13  z 11     0                0
 Fe13  x 12     0                0.0011(2)
 Fe13  y 12     0               -0.00819(15)
 Fe13  z 12     0               -0.0119(3)
 Ti21  x  1     0               -0.0019(7)
 Ti21  y  1     0                0.1560(4)
 Ti21  z  1     0               -0.0638(5)
 Ti21  x  2     0                0
 Ti21  y  2     0                0
 Ti21  z  2     0                0
 Ti21  x  3     0                0
 Ti21  y  3     0                0
 Ti21  z  3     0                0
 Ti21  x  4     0                0
 Ti21  y  4     0                0
 Ti21  z  4     0                0
 Ti21  x  5     0                0
 Ti21  y  5     0                0
 Ti21  z  5     0                0
 Ti21  x  6     0               -0.0016(3)
 Ti21  y  6     0                0.00991(19)
 Ti21  z  6     0                0.0221(2)
 Ti21  x  7     0                0
 Ti21  y  7     0                0
 Ti21  z  7     0                0
 Ti21  x  8     0                0
 Ti21  y  8     0                0
 Ti21  z  8     0                0
 Ti21  x  9     0                0
 Ti21  y  9     0                0
 Ti21  z  9     0                0
 Ti21  x 10     0                0
 Ti21  y 10     0                0
 Ti21  z 10     0                0
 Ti21  x 11     0                0
 Ti21  y 11     0                0
 Ti21  z 11     0                0
 Ti21  x 12     0                0.0029(2)
 Ti21  y 12     0               -0.00883(14)
 Ti21  z 12     0               -0.0116(3)
 Fe21  x  1     0               -0.0019(7)
 Fe21  y  1     0                0.1560(4)
 Fe21  z  1     0               -0.0638(5)
 Fe21  x  2     0                0
 Fe21  y  2     0                0
 Fe21  z  2     0                0
 Fe21  x  3     0                0
 Fe21  y  3     0                0
 Fe21  z  3     0                0
 Fe21  x  4     0                0
 Fe21  y  4     0                0
 Fe21  z  4     0                0
 Fe21  x  5     0                0
 Fe21  y  5     0                0
 Fe21  z  5     0                0
 Fe21  x  6     0               -0.0016(3)
 Fe21  y  6     0                0.00991(19)
 Fe21  z  6     0                0.0221(2)
 Fe21  x  7     0                0
 Fe21  y  7     0                0
 Fe21  z  7     0                0
 Fe21  x  8     0                0
 Fe21  y  8     0                0
 Fe21  z  8     0                0
 Fe21  x  9     0                0
 Fe21  y  9     0                0
 Fe21  z  9     0                0
 Fe21  x 10     0                0
 Fe21  y 10     0                0
 Fe21  z 10     0                0
 Fe21  x 11     0                0
 Fe21  y 11     0                0
 Fe21  z 11     0                0
 Fe21  x 12     0                0.0029(2)
 Fe21  y 12     0               -0.00883(14)
 Fe21  z 12     0               -0.0116(3)
 Ti22  x  1     0               -0.0019(7)
 Ti22  y  1     0                0.1560(4)
 Ti22  z  1     0               -0.0638(5)
 Ti22  x  2     0                0
 Ti22  y  2     0                0
 Ti22  z  2     0                0
 Ti22  x  3     0                0
 Ti22  y  3     0                0
 Ti22  z  3     0                0
 Ti22  x  4     0                0
 Ti22  y  4     0                0
 Ti22  z  4     0                0
 Ti22  x  5     0                0
 Ti22  y  5     0                0
 Ti22  z  5     0                0
 Ti22  x  6     0               -0.0016(3)
 Ti22  y  6     0                0.00991(19)
 Ti22  z  6     0                0.0221(2)
 Ti22  x  7     0                0
 Ti22  y  7     0                0
 Ti22  z  7     0                0
 Ti22  x  8     0                0
 Ti22  y  8     0                0
 Ti22  z  8     0                0
 Ti22  x  9     0                0
 Ti22  y  9     0                0
 Ti22  z  9     0                0
 Ti22  x 10     0                0
 Ti22  y 10     0                0
 Ti22  z 10     0                0
 Ti22  x 11     0                0
 Ti22  y 11     0                0
 Ti22  z 11     0                0
 Ti22  x 12     0                0.0029(2)
 Ti22  y 12     0               -0.00883(14)
 Ti22  z 12     0               -0.0116(3)
 Fe22  x  1     0               -0.0019(7)
 Fe22  y  1     0                0.1560(4)
 Fe22  z  1     0               -0.0638(5)
 Fe22  x  2     0                0
 Fe22  y  2     0                0
 Fe22  z  2     0                0
 Fe22  x  3     0                0
 Fe22  y  3     0                0
 Fe22  z  3     0                0
 Fe22  x  4     0                0
 Fe22  y  4     0                0
 Fe22  z  4     0                0
 Fe22  x  5     0                0
 Fe22  y  5     0                0
 Fe22  z  5     0                0
 Fe22  x  6     0               -0.0016(3)
 Fe22  y  6     0                0.00991(19)
 Fe22  z  6     0                0.0221(2)
 Fe22  x  7     0                0
 Fe22  y  7     0                0
 Fe22  z  7     0                0
 Fe22  x  8     0                0
 Fe22  y  8     0                0
 Fe22  z  8     0                0
 Fe22  x  9     0                0
 Fe22  y  9     0                0
 Fe22  z  9     0                0
 Fe22  x 10     0                0
 Fe22  y 10     0                0
 Fe22  z 10     0                0
 Fe22  x 11     0                0
 Fe22  y 11     0                0
 Fe22  z 11     0                0
 Fe22  x 12     0                0.0029(2)
 Fe22  y 12     0               -0.00883(14)
 Fe22  z 12     0               -0.0116(3)
 Ti23  x  1     0               -0.0019(7)
 Ti23  y  1     0                0.1560(4)
 Ti23  z  1     0               -0.0638(5)
 Ti23  x  2     0                0
 Ti23  y  2     0                0
 Ti23  z  2     0                0
 Ti23  x  3     0                0
 Ti23  y  3     0                0
 Ti23  z  3     0                0
 Ti23  x  4     0                0
 Ti23  y  4     0                0
 Ti23  z  4     0                0
 Ti23  x  5     0                0
 Ti23  y  5     0                0
 Ti23  z  5     0                0
 Ti23  x  6     0               -0.0016(3)
 Ti23  y  6     0                0.00991(19)
 Ti23  z  6     0                0.0221(2)
 Ti23  x  7     0                0
 Ti23  y  7     0                0
 Ti23  z  7     0                0
 Ti23  x  8     0                0
 Ti23  y  8     0                0
 Ti23  z  8     0                0
 Ti23  x  9     0                0
 Ti23  y  9     0                0
 Ti23  z  9     0                0
 Ti23  x 10     0                0
 Ti23  y 10     0                0
 Ti23  z 10     0                0
 Ti23  x 11     0                0
 Ti23  y 11     0                0
 Ti23  z 11     0                0
 Ti23  x 12     0                0.0029(2)
 Ti23  y 12     0               -0.00883(14)
 Ti23  z 12     0               -0.0116(3)
 Fe23  x  1     0               -0.0019(7)
 Fe23  y  1     0                0.1560(4)
 Fe23  z  1     0               -0.0638(5)
 Fe23  x  2     0                0
 Fe23  y  2     0                0
 Fe23  z  2     0                0
 Fe23  x  3     0                0
 Fe23  y  3     0                0
 Fe23  z  3     0                0
 Fe23  x  4     0                0
 Fe23  y  4     0                0
 Fe23  z  4     0                0
 Fe23  x  5     0                0
 Fe23  y  5     0                0
 Fe23  z  5     0                0
 Fe23  x  6     0               -0.0016(3)
 Fe23  y  6     0                0.00991(19)
 Fe23  z  6     0                0.0221(2)
 Fe23  x  7     0                0
 Fe23  y  7     0                0
 Fe23  z  7     0                0
 Fe23  x  8     0                0
 Fe23  y  8     0                0
 Fe23  z  8     0                0
 Fe23  x  9     0                0
 Fe23  y  9     0                0
 Fe23  z  9     0                0
 Fe23  x 10     0                0
 Fe23  y 10     0                0
 Fe23  z 10     0                0
 Fe23  x 11     0                0
 Fe23  y 11     0                0
 Fe23  z 11     0                0
 Fe23  x 12     0                0.0029(2)
 Fe23  y 12     0               -0.00883(14)
 Fe23  z 12     0               -0.0116(3)

loop_
 _jana_atom_site_displace_crenel_ortho_atom_site_label
 _jana_atom_site_displace_crenel_ortho_axis
 _jana_atom_site_displace_crenel_ortho_id
 _jana_atom_site_displace_crenel_ortho_param_order
 _jana_atom_site_displace_crenel_ortho_param_coeff
 La1   x  1  1  0.00013(9)
 La1   y  1  1  0.03795(4)
 La1   z  1  1  0.00051(5)
 La1   x  1  2  0.00017(3)
 La1   y  1  2 -0.00064(4)
 La1   z  1  2  0.00052(4)
 O1    x  4  1 -0.0004(5)
 O1    y  4  1  0.0211(6)
 O1    z  4  1 -0.0099(5)
 O1    x  4  2  0.0002(3)
 O1    y  4  2  0.0085(5)
 O1    z  4  2  0.0048(5)
 O1    x  4  3  0.0011(6)
 O1    y  4  3 -0.0045(8)
 O1    z  4  3  0.0056(8)
 O1    x  4  4  0.0005(4)
 O1    y  4  4 -0.0059(5)
 O1    z  4  4 -0.0002(6)
 O1    x  4  5 -0.0011(8)
 O1    y  4  5  0.0087(10)
 O1    z  4  5  0.0030(10)
 O1    x  4  6  0
 O1    y  4  6  0
 O1    z  4  6  0
 O2    x  5  1  0.0016(3)
 O2    y  5  1  0.0342(5)
 O2    z  5  1  0.0017(4)
 O2    x  5  2 -0.0084(3)
 O2    y  5  2 -0.0040(4)
 O2    z  5  2  0.0142(5)
 O2    x  5  3  0.0057(4)
 O2    y  5  3 -0.0054(5)
 O2    z  5  3 -0.0065(5)
 O2    x  5  4  0.0030(3)
 O2    y  5  4  0.0081(5)
 O2    z  5  4 -0.0036(5)
 O2    x  5  5 -0.0074(4)
 O2    y  5  5  0.0067(6)
 O2    z  5  5  0.0032(6)
 O2    x  5  6  0
 O2    y  5  6  0
 O2    z  5  6  0
 O3    x  6  1 -0.0020(3)
 O3    y  6  1  0.0369(4)
 O3    z  6  1  0.0012(4)
 O3    x  6  2  0.0063(3)
 O3    y  6  2  0.0024(4)
 O3    z  6  2  0.0163(5)
 O3    x  6  3 -0.0060(4)
 O3    y  6  3 -0.0018(5)
 O3    z  6  3 -0.0067(5)
 O3    x  6  4 -0.0014(3)
 O3    y  6  4  0.0052(5)
 O3    z  6  4 -0.0033(5)
 O3    x  6  5  0.0065(4)
 O3    y  6  5  0.0030(6)
 O3    z  6  5  0.0029(6)
 O3    x  6  6  0
 O3    y  6  6  0
 O3    z  6  6  0

loop_
 _jana_atom_site_U_crenel_ortho_atom_site_label
 _jana_atom_site_U_crenel_ortho_tens_elem
 _jana_atom_site_U_crenel_ortho_id
 _jana_atom_site_U_crenel_ortho_param_order
 _jana_atom_site_U_crenel_ortho_param_coeff
 La1   U11  1  1  0.00032(6)
 La1   U22  1  1  0.00038(6)
 La1   U33  1  1  0.00082(9)
 La1   U12  1  1  0.00018(9)
 La1   U13  1  1  0.00005(6)
 La1   U23  1  1 -0.00003(9)
 La1   U11  1  2  0.00063(7)
 La1   U22  1  2  0.00075(7)
 La1   U33  1  2 -0.00085(10)
 La1   U12  1  2 -0.00009(10)
 La1   U13  1  2  0.00027(15)
 La1   U23  1  2  0.00027(8)
 La1   U11  1  3 -0.00021(9)
 La1   U22  1  3  0.00078(9)
 La1   U33  1  3 -0.00017(13)
 La1   U12  1  3 -0.00023(8)
 La1   U13  1  3  0.00000(9)
 La1   U23  1  3 -0.00044(17)
 La1   U11  1  4  0
 La1   U22  1  4  0
 La1   U33  1  4  0
 La1   U12  1  4  0
 La1   U13  1  4  0
 La1   U23  1  4  0


#=======================================================================

# 10. MOLECULAR GEOMETRY


loop_
 _geom_bond_atom_site_label_1
 _geom_bond_atom_site_label_2
 _geom_bond_site_ssg_symmetry_1
 _geom_bond_site_ssg_symmetry_2
 _geom_bond_distance_av
 _geom_bond_distance_min
 _geom_bond_distance_max
 _geom_bond_publ_flag
  La1 Ti11 . 1_5545 3.438(2) 3.438(2) 3.438(2) ?
  La1 Ti11 . . 3.365(2) 3.365(2) 3.365(2) ?
  La1 Ti11 . 6_5445 3.3327(19) 3.3327(19) 3.3327(19) ?
  La1 Fe11 . 1_5545 3.438(2) 3.438(2) 3.438(2) ?
  La1 Fe11 . . 3.365(2) 3.365(2) 3.365(2) ?
  La1 Fe11 . 6_5445 3.3327(19) 3.3327(19) 3.3327(19) ?
  La1 Ti13 . 6_5445 3.3220(14) 3.3220(14) 3.3220(14) ?
  La1 Fe13 . 6_5445 3.3220(14) 3.3220(14) 3.3220(14) ?
  La1 Ti21 . 1_4545 3.427(2) 3.427(2) 3.427(2) ?
  La1 Ti21 . 1_4555 3.354(2) 3.354(2) 3.354(2) ?
  La1 Ti21 . 6_5445 3.3436(19) 3.3436(19) 3.3436(19) ?
  La1 Fe21 . 1_4545 3.427(2) 3.427(2) 3.427(2) ?
  La1 Fe21 . 1_4555 3.354(2) 3.354(2) 3.354(2) ?
  La1 Fe21 . 6_5445 3.3436(19) 3.3436(19) 3.3436(19) ?
  La1 Ti23 . 6_5445 3.3333(13) 3.3333(13) 3.3333(13) ?
  La1 Fe23 . 6_5445 3.3333(13) 3.3333(13) 3.3333(13) ?
  La1 O1 . 1_5545 2.45(5) 2.43(2) 2.47(7) ?
  La1 O1 . . 3.13(5) 3.13(7) 3.13(2) ?
  La1 O2 . . 2.475(18) 2.419(18) 2.531(18) ?
  La1 O2 . 6_5545 3.193(18) 3.142(18) 3.245(18) ?
  La1 O3 . 1_4555 2.457(17) 2.416(17) 2.498(18) ?
  La1 O3 . 6_5545 3.205(17) 3.168(18) 3.242(17) ?
  La1 Ti121 . 5_5555 3.461(3) 3.461(3) 3.461(3) ?
  La1 Ti121 . 5_5565 3.363(3) 3.363(3) 3.363(3) ?
  La1 Fe121 . 5_5555 3.461(3) 3.461(3) 3.461(3) ?
  La1 Fe121 . 5_5565 3.363(3) 3.363(3) 3.363(3) ?
  La1 Ti221 . 5_5555 3.417(3) 3.417(3) 3.417(3) ?
  La1 Ti221 . 5_5565 3.332(3) 3.332(3) 3.332(3) ?
  La1 Fe221 . 5_5555 3.417(3) 3.417(3) 3.417(3) ?
  La1 Fe221 . 5_5565 3.332(3) 3.332(3) 3.332(3) ?
  La1 O11 . 2_5455 2.98(5) 2.83(7) 3.14(2) ?
  La1 O11 . 2_5555 3.03(5) 2.50(2) 3.56(7) ?
  La1 O21 . 5_5555 2.732(10) 2.654(2) 2.810(17) ?
  La1 O21 . 2_5455 2.903(10) 2.887(2) 2.919(17) ?
  La1 O31 . 5_5555 2.668(9) 2.603(2) 2.732(17) ?
  La1 O31 . 2_4455 2.898(9) 2.860(17) 2.935(2) ?
  La2 Ti13 . 1_5545 3.3913(16) 3.3913(16) 3.3913(16) ?
  La2 Ti13 . 8_5645 3.3507(9) 3.3507(9) 3.3507(9) ?
  La2 Fe13 . 1_5545 3.3913(16) 3.3913(16) 3.3913(16) ?
  La2 Fe13 . 8_5645 3.3507(9) 3.3507(9) 3.3507(9) ?
  La2 Ti23 . 1_4545 3.3868(16) 3.3868(16) 3.3868(16) ?
  La2 Fe23 . 1_4545 3.3868(16) 3.3868(16) 3.3868(16) ?
  La2 O1 . 1_5545 2.55(7) 2.55(7) 2.55(7) ?
  La2 O2 . . 2.45(2) 2.45(2) 2.45(2) ?
  La2 O2 . 3_4555 2.48(2) 2.48(2) 2.48(2) ?
  La2 O2 . 6_5545 2.43(2) 2.43(2) 2.43(2) ?
  La2 O2 . 8_5645 2.54(2) 2.54(2) 2.54(2) ?
  La2 O3 . 1_4555 2.397(19) 2.397(19) 2.397(19) ?
  La2 O3 . 6_5545 2.458(19) 2.458(19) 2.458(19) ?
  La2 O11 . 2_5455 3.39(7) 3.39(7) 3.39(7) ?
  La2 O21 . 5_5555 3.218(17) 3.218(17) 3.218(17) ?
  La2 O31 . 5_5555 3.239(17) 3.239(17) 3.239(17) ?
  Ti11 O1 . . 2.00(2) 2.00(2) 2.00(2) ?
  Ti11 O2 . . 1.934(18) 1.934(18) 1.934(18) ?
  Ti11 O2 . 6_5555 2.010(18) 2.010(18) 2.010(18) ?
  Ti11 La11 . 5_5555 3.385(2) 3.385(2) 3.385(2) ?
  Ti11 La11 . 5_5565 3.410(2) 3.410(2) 3.410(2) ?
  Ti11 La11 . 2_5555 3.3510(19) 3.3510(19) 3.3510(19) ?
  Ti11 O11 . 5_5565 1.91(3) 1.91(3) 1.91(3) ?
  Ti11 O21 . 5_5565 1.938(3) 1.938(3) 1.938(3) ?
  Ti11 O21 . 2_5455 2.121(3) 2.121(3) 2.121(3) ?
  Fe11 O1 . . 2.00(2) 2.00(2) 2.00(2) ?
  Fe11 O2 . . 1.934(18) 1.934(18) 1.934(18) ?
  Fe11 O2 . 6_5555 2.010(18) 2.010(18) 2.010(18) ?
  Fe11 La11 . 5_5555 3.385(2) 3.385(2) 3.385(2) ?
  Fe11 La11 . 5_5565 3.410(2) 3.410(2) 3.410(2) ?
  Fe11 La11 . 2_5555 3.3510(19) 3.3510(19) 3.3510(19) ?
  Fe11 O11 . 5_5565 1.91(3) 1.91(3) 1.91(3) ?
  Fe11 O21 . 5_5565 1.938(3) 1.938(3) 1.938(3) ?
  Fe11 O21 . 2_5455 2.121(3) 2.121(3) 2.121(3) ?
  Ti13 O1 . . 1.99(8) 1.99(8) 1.99(8) ?
  Ti13 O2 . . 1.81(2) 1.81(2) 1.81(2) ?
  Ti13 O2 . 6_5555 1.87(2) 1.87(2) 1.87(2) ?
  Ti13 La11 . 2_5455 3.4475(13) 3.4475(13) 3.4475(13) ?
  Ti13 O11 . 5_5565 1.94(8) 1.94(8) 1.94(8) ?
  Ti13 O21 . 5_5565 2.290(17) 2.290(17) 2.290(17) ?
  Ti13 O21 . 2_5455 1.738(17) 1.738(17) 1.738(17) ?
  Fe13 O1 . . 1.99(8) 1.99(8) 1.99(8) ?
  Fe13 O2 . . 1.81(2) 1.81(2) 1.81(2) ?
  Fe13 O2 . 6_5555 1.87(2) 1.87(2) 1.87(2) ?
  Fe13 La11 . 2_5455 3.4475(13) 3.4475(13) 3.4475(13) ?
  Fe13 O11 . 5_5565 1.94(8) 1.94(8) 1.94(8) ?
  Fe13 O21 . 5_5565 2.290(17) 2.290(17) 2.290(17) ?
  Fe13 O21 . 2_5455 1.738(17) 1.738(17) 1.738(17) ?
  Ti21 O1 . 1_6555 1.98(2) 1.98(2) 1.98(2) ?
  Ti21 O3 . . 1.940(17) 1.940(17) 1.940(17) ?
  Ti21 O3 . 6_6555 2.027(18) 2.027(18) 2.027(18) ?
  Ti21 La11 . 5_5555 3.391(2) 3.391(2) 3.391(2) ?
  Ti21 La11 . 5_5565 3.416(2) 3.416(2) 3.416(2) ?
  Ti21 La11 . 2_6455 3.4913(18) 3.4913(18) 3.4913(18) ?
  Ti21 La11 . 2_6555 3.3399(19) 3.3399(19) 3.3399(19) ?
  Ti21 O11 . 5_5565 2.12(3) 2.12(3) 2.12(3) ?
  Ti21 O31 . 5_6565 1.977(3) 1.977(3) 1.977(3) ?
  Ti21 O31 . 2_5455 2.092(3) 2.092(3) 2.092(3) ?
  Fe21 O1 . 1_6555 1.98(2) 1.98(2) 1.98(2) ?
  Fe21 O3 . . 1.940(17) 1.940(17) 1.940(17) ?
  Fe21 O3 . 6_6555 2.027(18) 2.027(18) 2.027(18) ?
  Fe21 La11 . 5_5555 3.391(2) 3.391(2) 3.391(2) ?
  Fe21 La11 . 5_5565 3.416(2) 3.416(2) 3.416(2) ?
  Fe21 La11 . 2_6455 3.4913(18) 3.4913(18) 3.4913(18) ?
  Fe21 La11 . 2_6555 3.3399(19) 3.3399(19) 3.3399(19) ?
  Fe21 O11 . 5_5565 2.12(3) 2.12(3) 2.12(3) ?
  Fe21 O31 . 5_6565 1.977(3) 1.977(3) 1.977(3) ?
  Fe21 O31 . 2_5455 2.092(3) 2.092(3) 2.092(3) ?
  Ti23 O1 . 1_6555 2.01(8) 2.01(8) 2.01(8) ?
  Ti23 O3 . . 1.76(2) 1.76(2) 1.76(2) ?
  Ti23 O3 . 6_6555 1.88(2) 1.88(2) 1.88(2) ?
  Ti23 La11 . 2_6455 3.4913(13) 3.4913(13) 3.4913(13) ?
  Ti23 La31 . 5_5565 3.4647(16) 3.4647(16) 3.4647(16) ?
  Ti23 O11 . 5_5565 2.05(8) 2.05(8) 2.05(8) ?
  Ti23 O31 . 5_6565 2.299(17) 2.299(17) 2.299(17) ?
  Ti23 O31 . 2_5455 1.844(17) 1.844(17) 1.844(17) ?
  Fe23 O1 . 1_6555 2.01(8) 2.01(8) 2.01(8) ?
  Fe23 O3 . . 1.76(2) 1.76(2) 1.76(2) ?
  Fe23 O3 . 6_6555 1.88(2) 1.88(2) 1.88(2) ?
  Fe23 La11 . 2_6455 3.4913(13) 3.4913(13) 3.4913(13) ?
  Fe23 La31 . 5_5565 3.4647(16) 3.4647(16) 3.4647(16) ?
  Fe23 O11 . 5_5565 2.05(8) 2.05(8) 2.05(8) ?
  Fe23 O31 . 5_6565 2.299(17) 2.299(17) 2.299(17) ?
  Fe23 O31 . 2_5455 1.844(17) 1.844(17) 1.844(17) ?
  O1 O2 . . 2.83(6) 2.74(8) 2.94(8) ?
  O1 O2 . 6_5555 2.78(6) 2.77(8) 2.80(3) ?
  O1 O3 . 1_4555 2.81(6) 2.71(8) 2.91(8) ?
  O1 O3 . 6_5555 2.79(6) 2.74(8) 2.82(3) ?
  O1 La11 . 2_5455 2.78(4) 2.60(7) 2.97(2) ?
  O1 La11 . 2_5555 2.58(4) 2.47(7) 2.70(2) ?
  O1 Ti121 . 5_5565 2.06(8) 2.06(8) 2.06(8) ?
  O1 Fe121 . 5_5565 2.06(8) 2.06(8) 2.06(8) ?
  O1 Ti221 . 5_5565 1.98(8) 1.98(8) 1.98(8) ?
  O1 Fe221 . 5_5565 1.98(8) 1.98(8) 1.98(8) ?
  O1 O11 . 2_5465 3.54(8) 2.66(10) 4.02(10) ?
  O1 O11 . 2_5565 3.41(7) 3.09(7) 3.72(7) ?
  O1 O21 . 5_5565 2.81(6) 2.64(8) 3.08(8) ?
  O1 O21 . 2_5455 2.79(6) 2.41(8) 3.02(8) ?
  O1 O31 . 5_5565 2.80(6) 2.69(8) 3.01(8) ?
  O1 O31 . 2_4455 2.78(6) 2.45(8) 2.96(8) ?
  O2 O2 . 3_4555 2.85(3) 2.85(3) 2.85(3) ?
  O2 O2 . 7_5455 2.85(3) 2.85(3) 2.85(3) ?
  O2 O2 . 6_5545 2.82(3) 2.72(3) 2.88(2) ?
  O2 O2 . 6_5555 2.82(3) 2.72(3) 2.88(2) ?
  O2 O3 . 1_4555 3.55(3) 3.41(2) 3.70(3) ?
  O2 O3 . 3_4555 2.94(3) 2.94(3) 2.94(3) ?
  O2 O3 . 7_4455 2.76(3) 2.76(3) 2.76(3) ?
  O2 La11 . 5_5555 2.765(18) 2.742(18) 2.788(18) ?
  O2 La11 . 2_5555 2.745(18) 2.713(18) 2.778(18) ?
  O2 La31 . 5_5555 2.51(2) 2.51(2) 2.51(2) ?
  O2 La31 . 2_5555 2.45(2) 2.45(2) 2.45(2) ?
  O2 Ti121 . 5_5565 2.020(18) 2.020(18) 2.020(18) ?
  O2 Ti121 . 2_5555 2.172(18) 2.172(18) 2.172(18) ?
  O2 Fe121 . 5_5565 2.020(18) 2.020(18) 2.020(18) ?
  O2 Fe121 . 2_5555 2.172(18) 2.172(18) 2.172(18) ?
  O2 O11 . 5_5565 2.80(6) 2.63(3) 3.03(8) ?
  O2 O11 . 2_5555 2.77(6) 2.38(8) 3.49(8) ?
  O2 O21 . 5_5555 3.35(2) 3.261(18) 3.52(2) ?
  O2 O21 . 2_5455 2.78(2) 2.63(3) 2.943(19) ?
  O2 O21 . 2_5555 2.78(2) 2.590(18) 2.98(3) ?
  O3 O3 . 3_4555 2.86(3) 2.86(3) 2.86(3) ?
  O3 O3 . 7_5455 2.86(3) 2.86(3) 2.86(3) ?
  O3 O3 . 6_6545 2.84(3) 2.73(3) 2.92(3) ?
  O3 O3 . 6_6555 2.84(3) 2.73(3) 2.92(3) ?
  O3 La11 . 5_5555 2.753(17) 2.719(17) 2.788(18) ?
  O3 La11 . 2_6555 2.755(17) 2.715(18) 2.795(17) ?
  O3 La31 . 3_5455 2.53(2) 2.53(2) 2.53(2) ?
  O3 La31 . 5_5555 2.462(19) 2.462(19) 2.462(19) ?
  O3 La31 . 2_6555 2.472(19) 2.472(19) 2.472(19) ?
  O3 La31 . 4_5655 3.06(2) 3.06(2) 3.06(2) ?
  O3 Ti221 . 5_6565 2.026(18) 2.026(18) 2.026(18) ?
  O3 Ti221 . 2_5555 2.183(17) 2.183(17) 2.183(17) ?
  O3 Fe221 . 5_6565 2.026(18) 2.026(18) 2.026(18) ?
  O3 Fe221 . 2_5555 2.183(17) 2.183(17) 2.183(17) ?
  O3 O11 . 3_5465 3.40(7) 3.40(7) 3.40(7) ?
  O3 O11 . 5_5565 2.85(6) 2.78(3) 2.88(8) ?
  O3 O11 . 2_6555 2.82(6) 2.51(8) 3.39(8) ?
  O3 O31 . 5_6555 3.25(2) 3.16(3) 3.39(2) ?
  O3 O31 . 2_5455 2.79(2) 2.66(3) 2.950(17) ?
  O3 O31 . 2_5555 2.78(2) 2.620(19) 2.89(2) ?
  La11 Ti121 . . 3.415(3) 3.415(3) 3.415(3) ?
  La11 Ti121 . 1_5565 3.363(3) 3.363(3) 3.363(3) ?
  La11 Ti121 . 6_4555 3.420(3) 3.420(3) 3.420(3) ?
  La11 Fe121 . . 3.415(3) 3.415(3) 3.415(3) ?
  La11 Fe121 . 1_5565 3.363(3) 3.363(3) 3.363(3) ?
  La11 Fe121 . 6_4555 3.420(3) 3.420(3) 3.420(3) ?
  La11 Ti221 . 1_6555 3.441(3) 3.441(3) 3.441(3) ?
  La11 Ti221 . 1_6565 3.403(3) 3.403(3) 3.403(3) ?
  La11 Ti221 . 6_4555 3.400(2) 3.400(2) 3.400(2) ?
  La11 Fe221 . 1_6555 3.441(3) 3.441(3) 3.441(3) ?
  La11 Fe221 . 1_6565 3.403(3) 3.403(3) 3.403(3) ?
  La11 Fe221 . 6_4555 3.400(2) 3.400(2) 3.400(2) ?
  La11 O11 . . 3.28(5) 2.97(2) 3.59(7) ?
  La11 O11 . 1_5565 2.37(5) 2.13(7) 2.62(2) ?
  La11 O21 . . 2.384(10) 2.374(2) 2.395(17) ?
  La11 O21 . 6_4455 3.135(10) 2.966(17) 3.304(2) ?
  La11 O31 . 1_6555 2.348(9) 2.325(17) 2.370(2) ?
  La11 O31 . 6_4455 3.176(9) 3.050(17) 3.302(2) ?
  La31 O11 . . 2.61(7) 2.61(7) 2.61(7) ?
  La31 O11 . 1_5565 3.11(7) 3.11(7) 3.11(7) ?
  La31 O21 . . 3.088(17) 3.088(17) 3.088(17) ?
  La31 O31 . 1_6555 2.970(17) 2.970(17) 2.970(17) ?
  Ti121 O11 . . 2.22(8) 2.22(8) 2.22(8) ?
  Ti121 O21 . . 2.119(17) 2.119(17) 2.119(17) ?
  Ti121 O21 . 6_4445 1.738(17) 1.738(17) 1.738(17) ?
  Fe121 O11 . . 2.22(8) 2.22(8) 2.22(8) ?
  Fe121 O21 . . 2.119(17) 2.119(17) 2.119(17) ?
  Fe121 O21 . 6_4445 1.738(17) 1.738(17) 1.738(17) ?
  Ti221 O11 . 1_4555 2.08(8) 2.08(8) 2.08(8) ?
  Ti221 O31 . . 2.079(17) 2.079(17) 2.079(17) ?
  Ti221 O31 . 6_3445 1.756(17) 1.756(17) 1.756(17) ?
  Fe221 O11 . 1_4555 2.08(8) 2.08(8) 2.08(8) ?
  Fe221 O31 . . 2.079(17) 2.079(17) 2.079(17) ?
  Fe221 O31 . 6_3445 1.756(17) 1.756(17) 1.756(17) ?
  O11 O21 . . 2.95(6) 2.83(2) 3.08(8) ?
  O11 O21 . 6_4445 2.79(6) 2.22(8) 3.18(2) ?
  O11 O31 . 1_6545 4.16(6) 3.49(7) 4.60(7) ?
  O11 O31 . 1_6555 2.98(6) 2.96(8) 2.99(2) ?
  O11 O31 . 6_4445 2.85(6) 2.15(8) 3.28(2) ?
  O21 O21 . 6_4445 2.833(17) 2.77(2) 2.910(3) ?
  O21 O21 . 6_4455 2.833(17) 2.77(2) 2.910(3) ?
  O21 O31 . 1_6555 3.559(17) 3.27(2) 3.91(2) ?
  O31 O31 . 6_3445 2.845(17) 2.76(2) 2.901(3) ?
  O31 O31 . 6_3455 2.845(17) 2.76(2) 2.901(3) ?

#=======================================================================
data_n6_295K
#=======================================================================

# 5. CHEMICAL DATA

_chemical_name_systematic
?
_chemical_name_common                    ?
_chemical_formula_moiety                 ?
_chemical_formula_structural             ?
_chemical_formula_analytical             ?
_chemical_formula_iupac                  ?
_chemical_formula_sum                    'Fe0.571 La3.429 O11.429 Ti2.858'
_chemical_formula_weight                 827.9
_chemical_melting_point                  ?
_chemical_compound_source                ?
_chemical_absolute_configuration         .

#=======================================================================

# 6. CRYSTAL DATA

_symmetry_cell_setting                   monoclinic
_space_group_ssg_name                    'X21/b(\a\b0)00'
loop_
 _space_group_symop_ssg_id
 _space_group_symop_ssg_operation_algebraic
 1   x1,x2,x3,x4
 2   -x1+1/4,-x2,x3+1/2,-x4+1/4
 3   -x1,-x2,-x3,-x4+1/2
 4   x1,x2+1/2,-x3+1/2,x4
 5   x1+3/4,x2+1/2,x3,x4+1/4
 6   -x1,-x2+1/2,x3+1/2,-x4+1/2
 7   -x1+3/4,-x2+1/2,-x3,-x4+3/4
 8   x1+3/4,x2,-x3+1/2,x4+1/4
 9   x1+1/2,x2,x3,x4+1/2
 10  -x1+3/4,-x2,x3+1/2,-x4+3/4
 11  -x1+1/2,-x2,-x3,-x4
 12  x1+1/2,x2+1/2,-x3+1/2,x4+1/2
 13  x1+1/4,x2+1/2,x3,x4+3/4
 14  -x1+1/2,-x2+1/2,x3+1/2,-x4
 15  -x1+1/4,-x2+1/2,-x3,-x4+1/4
 16  x1+1/4,x2,-x3+1/2,x4+3/4
_cell_length_a                           7.8367(18)
_cell_length_b                           5.2775(14)
_cell_length_c                           5.5561(17)
_cell_angle_alpha                        90
_cell_angle_beta                         90
_cell_angle_gamma                        90.044(17)
_cell_volume                             229.79(11)

loop_
 _jana_cell_twin_matrix_id
 _jana_cell_twin_volume_fraction
 _jana_cell_twin_matrix_1_1
 _jana_cell_twin_matrix_1_2
 _jana_cell_twin_matrix_1_3
 _jana_cell_twin_matrix_2_1
 _jana_cell_twin_matrix_2_2
 _jana_cell_twin_matrix_2_3
 _jana_cell_twin_matrix_3_1
 _jana_cell_twin_matrix_3_2
 _jana_cell_twin_matrix_3_3
1 0.5878(11)
1 0 0
0 1 0
0 0 1
2 0.4122(11)
1 0 0
0 -1 0
0 0 -1

_cell_modulation_dimension               1
loop_
 _cell_wave_vector_seq_id
 _cell_wave_vector_x
 _cell_wave_vector_y
 _cell_wave_vector_z
 1  0.000000  0.071429  0.000000

_jana_cell_commen_supercell_matrix_1_1   1
_jana_cell_commen_supercell_matrix_1_2   0
_jana_cell_commen_supercell_matrix_1_3   0
_jana_cell_commen_supercell_matrix_2_1   0
_jana_cell_commen_supercell_matrix_2_2   14
_jana_cell_commen_supercell_matrix_2_3   0
_jana_cell_commen_supercell_matrix_3_1   0
_jana_cell_commen_supercell_matrix_3_2   0
_jana_cell_commen_supercell_matrix_3_3   1

_jana_cell_commen_t_section_1            0.018

_cell_formula_units_Z                    1

_cell_measurement_reflns_used            0
_cell_measurement_theta_min              ?
_cell_measurement_theta_max              ?
_cell_measurement_temperature            295
_cell_special_details
?

_exptl_crystal_density_diffrn            5.9807
_exptl_crystal_density_meas              ?
_exptl_crystal_density_method            ?
_exptl_crystal_F_000                     367

_exptl_absorpt_coefficient_mu            18.861
_exptl_crystal_description               'thick plate'
_exptl_crystal_size_max                  0.12
_exptl_crystal_size_mid                  0.08
_exptl_crystal_size_min                  0.005
_exptl_crystal_size_rad                  ?
_exptl_crystal_colour                    'metallic gray'
_exptl_absorpt_correction_type           numerical
_exptl_absorpt_process_details           'SADABS (version2008/1)'
_exptl_absorpt_correction_T_min          0.3670
_exptl_absorpt_correction_T_max          0.7477

#=======================================================================

# 7. EXPERIMENTAL DATA

_exptl_special_details                   ?

_diffrn_ambient_temperature              295
_diffrn_source                           ?
_diffrn_source_power                     ?
_diffrn_source_voltage                   55
_diffrn_source_current                   75
_diffrn_radiation_type                   'Mo K\a'
_diffrn_radiation_source                 'X-ray tube'
_diffrn_radiation_wavelength             0.71069
_diffrn_radiation_monochromator          graphite
_diffrn_measurement_device               'Image-Plate diffractometer'
_diffrn_measurement_device_type          'MarResearch Mar345dtb'
_diffrn_detector                         'MarResearch Mar345'
_diffrn_detector_area_resol_mean         ?
_diffrn_measurement_method               'Rotating, \f scans'
_diffrn_measurement_specimen_support     ?

_diffrn_reflns_number                    37403
_diffrn_reflns_theta_min                 2.21
_diffrn_reflns_theta_max                 39.35
_diffrn_reflns_theta_full                33.79
_diffrn_measured_fraction_theta_max      0.87
_diffrn_measured_fraction_theta_full     0.98
_diffrn_reflns_av_R_equivalents          0.0409
_diffrn_reflns_av_sigmaI/netI            0.0417
_diffrn_reflns_limit_h_min               -12
_diffrn_reflns_limit_h_max               12
_diffrn_reflns_limit_k_min               -9
_diffrn_reflns_limit_k_max               9
_diffrn_reflns_limit_l_min               -8
_diffrn_reflns_limit_l_max               8
_diffrn_reflns_limit_index_m_1_min       -7
_diffrn_reflns_limit_index_m_1_max       7
_diffrn_reflns_reduction_process         ?

_diffrn_standards_number                 ?
_diffrn_standards_interval_count         ?
_diffrn_standards_interval_time          ?
_diffrn_standards_decay_%                ?
loop_
_diffrn_standard_refln_index_h
_diffrn_standard_refln_index_k
_diffrn_standard_refln_index_l
  ? ? ?

_diffrn_radiation_probe                  x-ray

#=======================================================================

# 8. REFINEMENT DATA

_refine_special_details
?

_reflns_number_total                     12067
_reflns_number_gt                        11548
_reflns_threshold_expression             'I>3\s(I)'

_refine_ls_structure_factor_coef         F
_refine_ls_R_factor_gt                   0.0657
_refine_ls_wR_factor_gt                  0.0893
_refine_ls_R_factor_all                  0.0684
_refine_ls_wR_factor_ref                 0.0899
_refine_ls_goodness_of_fit_ref           3.23
_refine_ls_goodness_of_fit_gt            3.28
_refine_ls_restrained_S_gt               ?
_refine_ls_restrained_S_all              ?
_refine_ls_number_reflns                 12067
_refine_ls_number_parameters             161
_refine_ls_number_restraints             0
_refine_ls_number_constraints            8
_refine_ls_weighting_scheme              sigma
_refine_ls_weighting_details             'w=1/(\s^2^(F)+0.0001F^2^)'
_refine_ls_hydrogen_treatment            ?
_refine_ls_shift/su_max                  0.0026
_refine_ls_shift/su_mean                 0.0005
_refine_diff_density_max                 1.31
_refine_diff_density_min                 -1.11
_refine_ls_extinction_method             'none'
_refine_ls_extinction_coef               ?
_refine_ls_abs_structure_details         ?
_refine_ls_abs_structure_Flack           ?
_refine_ls_abs_structure_Rogers          ?

loop_
 _atom_type_symbol
 _atom_type_scat_dispersion_real
 _atom_type_scat_dispersion_imag
 _atom_type_scat_source
 Fe  0.3463  0.8444
 'International Tables Vol C tables 4.2.6.8 and 6.1.1.1'
 La -0.2871  2.4523
 'International Tables Vol C tables 4.2.6.8 and 6.1.1.1'
 O   0.0106  0.0060
 'International Tables Vol C tables 4.2.6.8 and 6.1.1.1'
 Ti  0.2776  0.4457
 'International Tables Vol C tables 4.2.6.8 and 6.1.1.1'

_computing_data_collection               ?
_computing_cell_refinement               ?
_computing_data_reduction                ?
_computing_structure_solution            ?
_computing_structure_refinement          ?
_computing_molecular_graphics            ?
_computing_publication_material          ?

#=======================================================================

# 9. ATOMIC COORDINATES AND DISPLACEMENT PARAMETERS

loop_
 _atom_site_label
 _atom_site_type_symbol
 _atom_site_fract_x
 _atom_site_fract_y
 _atom_site_fract_z
 _atom_site_adp_type
 _atom_site_U_iso_or_equiv
 _atom_site_symmetry_multiplicity
 _atom_site_occupancy
 _atom_site_calc_flag
 _atom_site_refinement_flags
 _atom_site_disorder_assembly
 _atom_site_disorder_group
  La1 La -0.00027(3) -0.01761(4) 0.00255(3) Uani 0.00732(7) 16 0.1429 d . . .
  La2 La -0.00161(10) 0.29626(8) -0.08993(14) Uani 0.00787(9) 16 0.0357 d . . .
  La3 La -0.00264(11) -0.23319(11) 0.04934(15) Uani 0.01355(12) 16 0.0357 d . .
 .
  Ti11 Ti 0.25 0 0.5 Uani 0.0056(2) 8 0.019(2) d . . .
  Fe11 Fe 0.25 0 0.5 Uani 0.0056(2) 8 0.052(2) d . . .
  Ti12 Ti 0.25 0 0.5 Uani 0.0056(2) 16 0.0277(10) d . . .
  Fe12 Fe 0.25 0 0.5 Uani 0.0056(2) 16 0.0080(10) d . . .
  Ti13 Ti 0.25 0 0.5 Uani 0.0056(2) 16 0.0347(9) d . . .
  Fe13 Fe 0.25 0 0.5 Uani 0.0056(2) 16 0.0010(9) d . . .
  Ti21 Ti 0.75 0 0.5 Uani 0.0051(2) 8 0.022(2) d . . .
  Fe21 Fe 0.75 0 0.5 Uani 0.0051(2) 8 0.049(2) d . . .
  Ti22 Ti 0.75 0 0.5 Uani 0.0051(2) 16 0.0277(10) d . . .
  Fe22 Fe 0.75 0 0.5 Uani 0.0051(2) 16 0.0080(10) d . . .
  Ti23 Ti 0.75 0 0.5 Uani 0.0051(2) 16 0.0342(9) d . . .
  Fe23 Fe 0.75 0 0.5 Uani 0.0051(2) 16 0.0016(9) d . . .
  O1 O -0.0005(3) 0.0065(4) 0.5566(5) Uani 0.0088(5) 16 0.2143 d . . .
  O2 O 0.2247(3) 0.2140(4) 0.2096(4) Uani 0.0092(5) 16 0.25 d . . .
  O3 O 0.7764(3) 0.2082(5) 0.2057(4) Uani 0.0091(5) 16 0.25 d . . .

loop_
 _atom_site_aniso_label
 _atom_site_aniso_type_symbol
 _atom_site_aniso_U_11
 _atom_site_aniso_U_22
 _atom_site_aniso_U_33
 _atom_site_aniso_U_12
 _atom_site_aniso_U_13
 _atom_site_aniso_U_23
 La1 La 0.00440(13) 0.01181(9) 0.00576(14) 0.00020(11) 0.00021(11) -0.00143(6)
 La2 La 0.00321(15) 0.01555(15) 0.00487(18) -0.00053(19) -0.00093(17)
 -0.00194(13)
 La3 La 0.00360(16) 0.0260(2) 0.0111(3) -0.0001(2) -0.0006(2) -0.00637(17)
 Ti11 Ti 0.0048(4) 0.0091(3) 0.0028(4) -0.0034(5) -0.0028(4) 0.00013(19)
 Fe11 Fe 0.0048(4) 0.0091(3) 0.0028(4) -0.0034(5) -0.0028(4) 0.00013(19)
 Ti12 Ti 0.0048(4) 0.0091(3) 0.0028(4) -0.0034(5) -0.0028(4) 0.00013(19)
 Fe12 Fe 0.0048(4) 0.0091(3) 0.0028(4) -0.0034(5) -0.0028(4) 0.00013(19)
 Ti13 Ti 0.0048(4) 0.0091(3) 0.0028(4) -0.0034(5) -0.0028(4) 0.00013(19)
 Fe13 Fe 0.0048(4) 0.0091(3) 0.0028(4) -0.0034(5) -0.0028(4) 0.00013(19)
 Ti21 Ti 0.0047(4) 0.0083(3) 0.0022(4) -0.0036(5) -0.0025(4) 0.00040(19)
 Fe21 Fe 0.0047(4) 0.0083(3) 0.0022(4) -0.0036(5) -0.0025(4) 0.00040(19)
 Ti22 Ti 0.0047(4) 0.0083(3) 0.0022(4) -0.0036(5) -0.0025(4) 0.00040(19)
 Fe22 Fe 0.0047(4) 0.0083(3) 0.0022(4) -0.0036(5) -0.0025(4) 0.00040(19)
 Ti23 Ti 0.0047(4) 0.0083(3) 0.0022(4) -0.0036(5) -0.0025(4) 0.00040(19)
 Fe23 Fe 0.0047(4) 0.0083(3) 0.0022(4) -0.0036(5) -0.0025(4) 0.00040(19)
 O1 O 0.0003(9) 0.0173(9) 0.0089(11) 0.0014(8) -0.0004(6) -0.0006(7)
 O2 O 0.0097(11) 0.0133(8) 0.0044(9) -0.0016(7) -0.0009(7) 0.0032(7)
 O3 O 0.0063(10) 0.0147(8) 0.0064(9) -0.0007(7) 0.0016(7) 0.0013(7)


loop_
 _atom_site_Fourier_wave_vector_seq_id
 _jana_atom_site_Fourier_wave_vector_q1_coeff
    1    1
    2    2
    3    3
    4    4
    5    5
    6    6
    7    7
    8    8
    9    9
   10   10
   11   11
   12   12

loop_
 _jana_atom_site_crenel_ortho_func_id
 _jana_atom_site_crenel_ortho_func_c
 _jana_atom_site_crenel_ortho_func_w
 _jana_atom_site_crenel_ortho_func_eps
 1  0.000000  0.142857  0.950000
 2  0.110453  0.035714  0.950000
 3 -0.105949  0.035714  0.950000
 4  0.000000  0.214286  0.950000
 5  0.000000  0.250000  0.950000
 6  0.000000  0.250000  0.950000


loop_
 _atom_site_occ_special_func_atom_site_label
 _atom_site_occ_special_func_crenel_c
 _atom_site_occ_special_func_crenel_w
 La1  0  0.1429
 La2  0.110453(6)  0.0357
 La3 -0.105949(8)  0.0357
 Ti11  0  0.0714
 Fe11  0  0.0714
 Ti12  0.0536  0.0357
 Fe12  0.0536  0.0357
 Ti13  0.0893  0.0357
 Fe13  0.0893  0.0357
 Ti21  0  0.0714
 Fe21  0  0.0714
 Ti22  0.0536  0.0357
 Fe22  0.0536  0.0357
 Ti23  0.0893  0.0357
 Fe23  0.0893  0.0357
 O1  0  0.2143
 O2  0  0.25
 O3  0  0.25

loop_
 _atom_site_displace_Fourier_atom_site_label
 _atom_site_displace_Fourier_axis
 _atom_site_displace_Fourier_wave_vector_seq_id
 _atom_site_displace_Fourier_param_cos
 _atom_site_displace_Fourier_param_sin
 Ti11  x  1     0               -0.0047(8)
 Ti11  y  1     0                0.1438(4)
 Ti11  z  1     0               -0.0602(5)
 Ti11  x  2     0                0
 Ti11  y  2     0                0
 Ti11  z  2     0                0
 Ti11  x  3     0                0
 Ti11  y  3     0                0
 Ti11  z  3     0                0
 Ti11  x  4     0                0
 Ti11  y  4     0                0
 Ti11  z  4     0                0
 Ti11  x  5     0                0
 Ti11  y  5     0                0
 Ti11  z  5     0                0
 Ti11  x  6     0                0.0004(4)
 Ti11  y  6     0                0.0111(2)
 Ti11  z  6     0                0.0220(2)
 Ti11  x  7     0                0
 Ti11  y  7     0                0
 Ti11  z  7     0                0
 Ti11  x  8     0                0
 Ti11  y  8     0                0
 Ti11  z  8     0                0
 Ti11  x  9     0                0
 Ti11  y  9     0                0
 Ti11  z  9     0                0
 Ti11  x 10     0                0
 Ti11  y 10     0                0
 Ti11  z 10     0                0
 Ti11  x 11     0                0
 Ti11  y 11     0                0
 Ti11  z 11     0                0
 Ti11  x 12     0                0.0004(3)
 Ti11  y 12     0               -0.00774(15)
 Ti11  z 12     0               -0.0120(4)
 Fe11  x  1     0               -0.0047(8)
 Fe11  y  1     0                0.1438(4)
 Fe11  z  1     0               -0.0602(5)
 Fe11  x  2     0                0
 Fe11  y  2     0                0
 Fe11  z  2     0                0
 Fe11  x  3     0                0
 Fe11  y  3     0                0
 Fe11  z  3     0                0
 Fe11  x  4     0                0
 Fe11  y  4     0                0
 Fe11  z  4     0                0
 Fe11  x  5     0                0
 Fe11  y  5     0                0
 Fe11  z  5     0                0
 Fe11  x  6     0                0.0004(4)
 Fe11  y  6     0                0.0111(2)
 Fe11  z  6     0                0.0220(2)
 Fe11  x  7     0                0
 Fe11  y  7     0                0
 Fe11  z  7     0                0
 Fe11  x  8     0                0
 Fe11  y  8     0                0
 Fe11  z  8     0                0
 Fe11  x  9     0                0
 Fe11  y  9     0                0
 Fe11  z  9     0                0
 Fe11  x 10     0                0
 Fe11  y 10     0                0
 Fe11  z 10     0                0
 Fe11  x 11     0                0
 Fe11  y 11     0                0
 Fe11  z 11     0                0
 Fe11  x 12     0                0.0004(3)
 Fe11  y 12     0               -0.00774(15)
 Fe11  z 12     0               -0.0120(4)
 Ti12  x  1     0               -0.0047(8)
 Ti12  y  1     0                0.1438(4)
 Ti12  z  1     0               -0.0602(5)
 Ti12  x  2     0                0
 Ti12  y  2     0                0
 Ti12  z  2     0                0
 Ti12  x  3     0                0
 Ti12  y  3     0                0
 Ti12  z  3     0                0
 Ti12  x  4     0                0
 Ti12  y  4     0                0
 Ti12  z  4     0                0
 Ti12  x  5     0                0
 Ti12  y  5     0                0
 Ti12  z  5     0                0
 Ti12  x  6     0                0.0004(4)
 Ti12  y  6     0                0.0111(2)
 Ti12  z  6     0                0.0220(2)
 Ti12  x  7     0                0
 Ti12  y  7     0                0
 Ti12  z  7     0                0
 Ti12  x  8     0                0
 Ti12  y  8     0                0
 Ti12  z  8     0                0
 Ti12  x  9     0                0
 Ti12  y  9     0                0
 Ti12  z  9     0                0
 Ti12  x 10     0                0
 Ti12  y 10     0                0
 Ti12  z 10     0                0
 Ti12  x 11     0                0
 Ti12  y 11     0                0
 Ti12  z 11     0                0
 Ti12  x 12     0                0.0004(3)
 Ti12  y 12     0               -0.00774(15)
 Ti12  z 12     0               -0.0120(4)
 Fe12  x  1     0               -0.0047(8)
 Fe12  y  1     0                0.1438(4)
 Fe12  z  1     0               -0.0602(5)
 Fe12  x  2     0                0
 Fe12  y  2     0                0
 Fe12  z  2     0                0
 Fe12  x  3     0                0
 Fe12  y  3     0                0
 Fe12  z  3     0                0
 Fe12  x  4     0                0
 Fe12  y  4     0                0
 Fe12  z  4     0                0
 Fe12  x  5     0                0
 Fe12  y  5     0                0
 Fe12  z  5     0                0
 Fe12  x  6     0                0.0004(4)
 Fe12  y  6     0                0.0111(2)
 Fe12  z  6     0                0.0220(2)
 Fe12  x  7     0                0
 Fe12  y  7     0                0
 Fe12  z  7     0                0
 Fe12  x  8     0                0
 Fe12  y  8     0                0
 Fe12  z  8     0                0
 Fe12  x  9     0                0
 Fe12  y  9     0                0
 Fe12  z  9     0                0
 Fe12  x 10     0                0
 Fe12  y 10     0                0
 Fe12  z 10     0                0
 Fe12  x 11     0                0
 Fe12  y 11     0                0
 Fe12  z 11     0                0
 Fe12  x 12     0                0.0004(3)
 Fe12  y 12     0               -0.00774(15)
 Fe12  z 12     0               -0.0120(4)
 Ti13  x  1     0               -0.0047(8)
 Ti13  y  1     0                0.1438(4)
 Ti13  z  1     0               -0.0602(5)
 Ti13  x  2     0                0
 Ti13  y  2     0                0
 Ti13  z  2     0                0
 Ti13  x  3     0                0
 Ti13  y  3     0                0
 Ti13  z  3     0                0
 Ti13  x  4     0                0
 Ti13  y  4     0                0
 Ti13  z  4     0                0
 Ti13  x  5     0                0
 Ti13  y  5     0                0
 Ti13  z  5     0                0
 Ti13  x  6     0                0.0004(4)
 Ti13  y  6     0                0.0111(2)
 Ti13  z  6     0                0.0220(2)
 Ti13  x  7     0                0
 Ti13  y  7     0                0
 Ti13  z  7     0                0
 Ti13  x  8     0                0
 Ti13  y  8     0                0
 Ti13  z  8     0                0
 Ti13  x  9     0                0
 Ti13  y  9     0                0
 Ti13  z  9     0                0
 Ti13  x 10     0                0
 Ti13  y 10     0                0
 Ti13  z 10     0                0
 Ti13  x 11     0                0
 Ti13  y 11     0                0
 Ti13  z 11     0                0
 Ti13  x 12     0                0.0004(3)
 Ti13  y 12     0               -0.00774(15)
 Ti13  z 12     0               -0.0120(4)
 Fe13  x  1     0               -0.0047(8)
 Fe13  y  1     0                0.1438(4)
 Fe13  z  1     0               -0.0602(5)
 Fe13  x  2     0                0
 Fe13  y  2     0                0
 Fe13  z  2     0                0
 Fe13  x  3     0                0
 Fe13  y  3     0                0
 Fe13  z  3     0                0
 Fe13  x  4     0                0
 Fe13  y  4     0                0
 Fe13  z  4     0                0
 Fe13  x  5     0                0
 Fe13  y  5     0                0
 Fe13  z  5     0                0
 Fe13  x  6     0                0.0004(4)
 Fe13  y  6     0                0.0111(2)
 Fe13  z  6     0                0.0220(2)
 Fe13  x  7     0                0
 Fe13  y  7     0                0
 Fe13  z  7     0                0
 Fe13  x  8     0                0
 Fe13  y  8     0                0
 Fe13  z  8     0                0
 Fe13  x  9     0                0
 Fe13  y  9     0                0
 Fe13  z  9     0                0
 Fe13  x 10     0                0
 Fe13  y 10     0                0
 Fe13  z 10     0                0
 Fe13  x 11     0                0
 Fe13  y 11     0                0
 Fe13  z 11     0                0
 Fe13  x 12     0                0.0004(3)
 Fe13  y 12     0               -0.00774(15)
 Fe13  z 12     0               -0.0120(4)
 Ti21  x  1     0                0.0007(8)
 Ti21  y  1     0                0.1559(4)
 Ti21  z  1     0               -0.0639(5)
 Ti21  x  2     0                0
 Ti21  y  2     0                0
 Ti21  z  2     0                0
 Ti21  x  3     0                0
 Ti21  y  3     0                0
 Ti21  z  3     0                0
 Ti21  x  4     0                0
 Ti21  y  4     0                0
 Ti21  z  4     0                0
 Ti21  x  5     0                0
 Ti21  y  5     0                0
 Ti21  z  5     0                0
 Ti21  x  6     0               -0.0016(4)
 Ti21  y  6     0                0.00967(19)
 Ti21  z  6     0                0.0224(2)
 Ti21  x  7     0                0
 Ti21  y  7     0                0
 Ti21  z  7     0                0
 Ti21  x  8     0                0
 Ti21  y  8     0                0
 Ti21  z  8     0                0
 Ti21  x  9     0                0
 Ti21  y  9     0                0
 Ti21  z  9     0                0
 Ti21  x 10     0                0
 Ti21  y 10     0                0
 Ti21  z 10     0                0
 Ti21  x 11     0                0
 Ti21  y 11     0                0
 Ti21  z 11     0                0
 Ti21  x 12     0                0.0023(3)
 Ti21  y 12     0               -0.00908(15)
 Ti21  z 12     0               -0.0113(3)
 Fe21  x  1     0                0.0007(8)
 Fe21  y  1     0                0.1559(4)
 Fe21  z  1     0               -0.0639(5)
 Fe21  x  2     0                0
 Fe21  y  2     0                0
 Fe21  z  2     0                0
 Fe21  x  3     0                0
 Fe21  y  3     0                0
 Fe21  z  3     0                0
 Fe21  x  4     0                0
 Fe21  y  4     0                0
 Fe21  z  4     0                0
 Fe21  x  5     0                0
 Fe21  y  5     0                0
 Fe21  z  5     0                0
 Fe21  x  6     0               -0.0016(4)
 Fe21  y  6     0                0.00967(19)
 Fe21  z  6     0                0.0224(2)
 Fe21  x  7     0                0
 Fe21  y  7     0                0
 Fe21  z  7     0                0
 Fe21  x  8     0                0
 Fe21  y  8     0                0
 Fe21  z  8     0                0
 Fe21  x  9     0                0
 Fe21  y  9     0                0
 Fe21  z  9     0                0
 Fe21  x 10     0                0
 Fe21  y 10     0                0
 Fe21  z 10     0                0
 Fe21  x 11     0                0
 Fe21  y 11     0                0
 Fe21  z 11     0                0
 Fe21  x 12     0                0.0023(3)
 Fe21  y 12     0               -0.00908(15)
 Fe21  z 12     0               -0.0113(3)
 Ti22  x  1     0                0.0007(8)
 Ti22  y  1     0                0.1559(4)
 Ti22  z  1     0               -0.0639(5)
 Ti22  x  2     0                0
 Ti22  y  2     0                0
 Ti22  z  2     0                0
 Ti22  x  3     0                0
 Ti22  y  3     0                0
 Ti22  z  3     0                0
 Ti22  x  4     0                0
 Ti22  y  4     0                0
 Ti22  z  4     0                0
 Ti22  x  5     0                0
 Ti22  y  5     0                0
 Ti22  z  5     0                0
 Ti22  x  6     0               -0.0016(4)
 Ti22  y  6     0                0.00967(19)
 Ti22  z  6     0                0.0224(2)
 Ti22  x  7     0                0
 Ti22  y  7     0                0
 Ti22  z  7     0                0
 Ti22  x  8     0                0
 Ti22  y  8     0                0
 Ti22  z  8     0                0
 Ti22  x  9     0                0
 Ti22  y  9     0                0
 Ti22  z  9     0                0
 Ti22  x 10     0                0
 Ti22  y 10     0                0
 Ti22  z 10     0                0
 Ti22  x 11     0                0
 Ti22  y 11     0                0
 Ti22  z 11     0                0
 Ti22  x 12     0                0.0023(3)
 Ti22  y 12     0               -0.00908(15)
 Ti22  z 12     0               -0.0113(3)
 Fe22  x  1     0                0.0007(8)
 Fe22  y  1     0                0.1559(4)
 Fe22  z  1     0               -0.0639(5)
 Fe22  x  2     0                0
 Fe22  y  2     0                0
 Fe22  z  2     0                0
 Fe22  x  3     0                0
 Fe22  y  3     0                0
 Fe22  z  3     0                0
 Fe22  x  4     0                0
 Fe22  y  4     0                0
 Fe22  z  4     0                0
 Fe22  x  5     0                0
 Fe22  y  5     0                0
 Fe22  z  5     0                0
 Fe22  x  6     0               -0.0016(4)
 Fe22  y  6     0                0.00967(19)
 Fe22  z  6     0                0.0224(2)
 Fe22  x  7     0                0
 Fe22  y  7     0                0
 Fe22  z  7     0                0
 Fe22  x  8     0                0
 Fe22  y  8     0                0
 Fe22  z  8     0                0
 Fe22  x  9     0                0
 Fe22  y  9     0                0
 Fe22  z  9     0                0
 Fe22  x 10     0                0
 Fe22  y 10     0                0
 Fe22  z 10     0                0
 Fe22  x 11     0                0
 Fe22  y 11     0                0
 Fe22  z 11     0                0
 Fe22  x 12     0                0.0023(3)
 Fe22  y 12     0               -0.00908(15)
 Fe22  z 12     0               -0.0113(3)
 Ti23  x  1     0                0.0007(8)
 Ti23  y  1     0                0.1559(4)
 Ti23  z  1     0               -0.0639(5)
 Ti23  x  2     0                0
 Ti23  y  2     0                0
 Ti23  z  2     0                0
 Ti23  x  3     0                0
 Ti23  y  3     0                0
 Ti23  z  3     0                0
 Ti23  x  4     0                0
 Ti23  y  4     0                0
 Ti23  z  4     0                0
 Ti23  x  5     0                0
 Ti23  y  5     0                0
 Ti23  z  5     0                0
 Ti23  x  6     0               -0.0016(4)
 Ti23  y  6     0                0.00967(19)
 Ti23  z  6     0                0.0224(2)
 Ti23  x  7     0                0
 Ti23  y  7     0                0
 Ti23  z  7     0                0
 Ti23  x  8     0                0
 Ti23  y  8     0                0
 Ti23  z  8     0                0
 Ti23  x  9     0                0
 Ti23  y  9     0                0
 Ti23  z  9     0                0
 Ti23  x 10     0                0
 Ti23  y 10     0                0
 Ti23  z 10     0                0
 Ti23  x 11     0                0
 Ti23  y 11     0                0
 Ti23  z 11     0                0
 Ti23  x 12     0                0.0023(3)
 Ti23  y 12     0               -0.00908(15)
 Ti23  z 12     0               -0.0113(3)
 Fe23  x  1     0                0.0007(8)
 Fe23  y  1     0                0.1559(4)
 Fe23  z  1     0               -0.0639(5)
 Fe23  x  2     0                0
 Fe23  y  2     0                0
 Fe23  z  2     0                0
 Fe23  x  3     0                0
 Fe23  y  3     0                0
 Fe23  z  3     0                0
 Fe23  x  4     0                0
 Fe23  y  4     0                0
 Fe23  z  4     0                0
 Fe23  x  5     0                0
 Fe23  y  5     0                0
 Fe23  z  5     0                0
 Fe23  x  6     0               -0.0016(4)
 Fe23  y  6     0                0.00967(19)
 Fe23  z  6     0                0.0224(2)
 Fe23  x  7     0                0
 Fe23  y  7     0                0
 Fe23  z  7     0                0
 Fe23  x  8     0                0
 Fe23  y  8     0                0
 Fe23  z  8     0                0
 Fe23  x  9     0                0
 Fe23  y  9     0                0
 Fe23  z  9     0                0
 Fe23  x 10     0                0
 Fe23  y 10     0                0
 Fe23  z 10     0                0
 Fe23  x 11     0                0
 Fe23  y 11     0                0
 Fe23  z 11     0                0
 Fe23  x 12     0                0.0023(3)
 Fe23  y 12     0               -0.00908(15)
 Fe23  z 12     0               -0.0113(3)

loop_
 _jana_atom_site_displace_crenel_ortho_atom_site_label
 _jana_atom_site_displace_crenel_ortho_axis
 _jana_atom_site_displace_crenel_ortho_id
 _jana_atom_site_displace_crenel_ortho_param_order
 _jana_atom_site_displace_crenel_ortho_param_coeff
 La1   x  1  1  0.00012(11)
 La1   y  1  1  0.03816(4)
 La1   z  1  1  0.00043(5)
 La1   x  1  2  0.00019(3)
 La1   y  1  2 -0.00069(4)
 La1   z  1  2  0.00061(4)
 O1    x  4  1  0.0006(5)
 O1    y  4  1  0.0233(6)
 O1    z  4  1 -0.0105(5)
 O1    x  4  2  0.0000(3)
 O1    y  4  2  0.0080(5)
 O1    z  4  2  0.0049(5)
 O1    x  4  3 -0.0001(7)
 O1    y  4  3 -0.0077(8)
 O1    z  4  3  0.0057(7)
 O1    x  4  4  0.0005(4)
 O1    y  4  4 -0.0057(5)
 O1    z  4  4  0.0006(6)
 O1    x  4  5  0.0008(8)
 O1    y  4  5  0.0121(10)
 O1    z  4  5  0.0021(9)
 O1    x  4  6  0
 O1    y  4  6  0
 O1    z  4  6  0
 O2    x  5  1  0.0015(3)
 O2    y  5  1  0.0348(4)
 O2    z  5  1  0.0011(4)
 O2    x  5  2 -0.0082(3)
 O2    y  5  2 -0.0039(4)
 O2    z  5  2  0.0140(5)
 O2    x  5  3  0.0054(4)
 O2    y  5  3 -0.0042(5)
 O2    z  5  3 -0.0055(5)
 O2    x  5  4  0.0029(3)
 O2    y  5  4  0.0081(5)
 O2    z  5  4 -0.0051(5)
 O2    x  5  5 -0.0071(4)
 O2    y  5  5  0.0058(6)
 O2    z  5  5  0.0013(6)
 O2    x  5  6  0
 O2    y  5  6  0
 O2    z  5  6  0
 O3    x  6  1 -0.0022(3)
 O3    y  6  1  0.0361(4)
 O3    z  6  1  0.0008(4)
 O3    x  6  2  0.0067(3)
 O3    y  6  2  0.0023(5)
 O3    z  6  2  0.0172(5)
 O3    x  6  3 -0.0057(4)
 O3    y  6  3 -0.0020(5)
 O3    z  6  3 -0.0065(5)
 O3    x  6  4 -0.0015(3)
 O3    y  6  4  0.0048(5)
 O3    z  6  4 -0.0042(5)
 O3    x  6  5  0.0064(4)
 O3    y  6  5  0.0034(6)
 O3    z  6  5  0.0031(6)
 O3    x  6  6  0
 O3    y  6  6  0
 O3    z  6  6  0

loop_
 _jana_atom_site_U_crenel_ortho_atom_site_label
 _jana_atom_site_U_crenel_ortho_tens_elem
 _jana_atom_site_U_crenel_ortho_id
 _jana_atom_site_U_crenel_ortho_param_order
 _jana_atom_site_U_crenel_ortho_param_coeff
 La1   U11  1  1  0.00030(6)
 La1   U22  1  1  0.00028(7)
 La1   U33  1  1  0.00124(9)
 La1   U12  1  1  0.00013(10)
 La1   U13  1  1  0.00015(7)
 La1   U23  1  1 -0.00029(10)
 La1   U11  1  2  0.00081(8)
 La1   U22  1  2  0.00033(7)
 La1   U33  1  2 -0.00077(10)
 La1   U12  1  2 -0.00016(10)
 La1   U13  1  2  0.00026(17)
 La1   U23  1  2  0.00035(8)
 La1   U11  1  3 -0.00014(9)
 La1   U22  1  3  0.00086(9)
 La1   U33  1  3 -0.00052(12)
 La1   U12  1  3 -0.00001(8)
 La1   U13  1  3 -0.00006(10)
 La1   U23  1  3 -0.00007(17)
 La1   U11  1  4  0
 La1   U22  1  4  0
 La1   U33  1  4  0
 La1   U12  1  4  0
 La1   U13  1  4  0
 La1   U23  1  4  0


#=======================================================================

# 10. MOLECULAR GEOMETRY


loop_
 _geom_bond_atom_site_label_1
 _geom_bond_atom_site_label_2
 _geom_bond_site_ssg_symmetry_1
 _geom_bond_site_ssg_symmetry_2
 _geom_bond_distance_av
 _geom_bond_distance_min
 _geom_bond_distance_max
 _geom_bond_publ_flag
  La1 Ti11 . 1_5545 3.438(3) 3.438(3) 3.438(3) ?
  La1 Ti11 . . 3.365(3) 3.365(3) 3.365(3) ?
  La1 Ti11 . 6_5445 3.342(2) 3.342(2) 3.342(2) ?
  La1 Fe11 . 1_5545 3.438(3) 3.438(3) 3.438(3) ?
  La1 Fe11 . . 3.365(3) 3.365(3) 3.365(3) ?
  La1 Fe11 . 6_5445 3.342(2) 3.342(2) 3.342(2) ?
  La1 Ti13 . 6_5445 3.3236(16) 3.3236(16) 3.3236(16) ?
  La1 Fe13 . 6_5445 3.3236(16) 3.3236(16) 3.3236(16) ?
  La1 Ti21 . 1_4545 3.429(3) 3.429(3) 3.429(3) ?
  La1 Ti21 . 1_4555 3.360(3) 3.360(3) 3.360(3) ?
  La1 Ti21 . 6_5445 3.343(2) 3.343(2) 3.343(2) ?
  La1 Fe21 . 1_4545 3.429(3) 3.429(3) 3.429(3) ?
  La1 Fe21 . 1_4555 3.360(3) 3.360(3) 3.360(3) ?
  La1 Fe21 . 6_5445 3.343(2) 3.343(2) 3.343(2) ?
  La1 Ti23 . 6_5445 3.3391(16) 3.3391(16) 3.3391(16) ?
  La1 Fe23 . 6_5445 3.3391(16) 3.3391(16) 3.3391(16) ?
  La1 O1 . 1_5545 2.46(4) 2.436(19) 2.48(7) ?
  La1 O1 . . 3.13(4) 3.13(7) 3.128(19) ?
  La1 O2 . . 2.472(18) 2.413(18) 2.531(17) ?
  La1 O2 . 6_5545 3.199(18) 3.145(17) 3.253(18) ?
  La1 O3 . 1_4555 2.459(17) 2.417(17) 2.500(18) ?
  La1 O3 . 6_5545 3.209(17) 3.171(18) 3.246(17) ?
  La1 Ti121 . 5_5555 3.458(3) 3.458(3) 3.458(3) ?
  La1 Ti121 . 5_5565 3.360(3) 3.360(3) 3.360(3) ?
  La1 Fe121 . 5_5555 3.458(3) 3.458(3) 3.458(3) ?
  La1 Fe121 . 5_5565 3.360(3) 3.360(3) 3.360(3) ?
  La1 Ti221 . 5_5555 3.426(3) 3.426(3) 3.426(3) ?
  La1 Ti221 . 5_5565 3.341(3) 3.341(3) 3.341(3) ?
  La1 Fe221 . 5_5555 3.426(3) 3.426(3) 3.426(3) ?
  La1 Fe221 . 5_5565 3.341(3) 3.341(3) 3.341(3) ?
  La1 O11 . 2_5455 3.14(5) 3.01(7) 3.28(2) ?
  La1 O11 . 2_5555 3.08(5) 2.37(2) 3.79(7) ?
  La1 O21 . 5_5555 2.728(10) 2.676(2) 2.779(17) ?
  La1 O21 . 2_5455 2.884(10) 2.869(2) 2.899(17) ?
  La1 O31 . 5_5555 2.676(10) 2.620(2) 2.733(17) ?
  La1 O31 . 2_4455 2.899(10) 2.880(17) 2.919(2) ?
  La2 Ti13 . 1_5545 3.3980(18) 3.3980(18) 3.3980(18) ?
  La2 Ti13 . 8_5645 3.3515(9) 3.3515(9) 3.3515(9) ?
  La2 Fe13 . 1_5545 3.3980(18) 3.3980(18) 3.3980(18) ?
  La2 Fe13 . 8_5645 3.3515(9) 3.3515(9) 3.3515(9) ?
  La2 Ti23 . 1_4545 3.3815(18) 3.3815(18) 3.3815(18) ?
  La2 Fe23 . 1_4545 3.3815(18) 3.3815(18) 3.3815(18) ?
  La2 O1 . 1_5545 2.55(7) 2.55(7) 2.55(7) ?
  La2 O2 . . 2.444(19) 2.444(19) 2.444(19) ?
  La2 O2 . 3_4555 2.49(2) 2.49(2) 2.49(2) ?
  La2 O2 . 6_5545 2.44(2) 2.44(2) 2.44(2) ?
  La2 O2 . 8_5645 2.556(19) 2.556(19) 2.556(19) ?
  La2 O3 . 1_4555 2.40(2) 2.40(2) 2.40(2) ?
  La2 O3 . 6_5545 2.462(19) 2.462(19) 2.462(19) ?
  La2 O11 . 2_5455 3.14(7) 3.14(7) 3.14(7) ?
  La2 O21 . 5_5555 3.235(17) 3.235(17) 3.235(17) ?
  La2 O31 . 5_5555 3.228(17) 3.228(17) 3.228(17) ?
  Ti11 O1 . . 1.99(2) 1.99(2) 1.99(2) ?
  Ti11 O2 . . 1.944(18) 1.944(18) 1.944(18) ?
  Ti11 O2 . 6_5555 2.016(17) 2.016(17) 2.016(17) ?
  Ti11 La11 . 5_5555 3.389(3) 3.389(3) 3.389(3) ?
  Ti11 La11 . 5_5565 3.416(3) 3.416(3) 3.416(3) ?
  Ti11 La11 . 2_5555 3.352(2) 3.352(2) 3.352(2) ?
  Ti11 O11 . 5_5565 2.07(3) 2.07(3) 2.07(3) ?
  Ti11 O21 . 5_5565 1.910(3) 1.910(3) 1.910(3) ?
  Ti11 O21 . 2_5455 2.146(3) 2.146(3) 2.146(3) ?
  Fe11 O1 . . 1.99(2) 1.99(2) 1.99(2) ?
  Fe11 O2 . . 1.944(18) 1.944(18) 1.944(18) ?
  Fe11 O2 . 6_5555 2.016(17) 2.016(17) 2.016(17) ?
  Fe11 La11 . 5_5555 3.389(3) 3.389(3) 3.389(3) ?
  Fe11 La11 . 5_5565 3.416(3) 3.416(3) 3.416(3) ?
  Fe11 La11 . 2_5555 3.352(2) 3.352(2) 3.352(2) ?
  Fe11 O11 . 5_5565 2.07(3) 2.07(3) 2.07(3) ?
  Fe11 O21 . 5_5565 1.910(3) 1.910(3) 1.910(3) ?
  Fe11 O21 . 2_5455 2.146(3) 2.146(3) 2.146(3) ?
  Ti13 O1 . . 2.00(8) 2.00(8) 2.00(8) ?
  Ti13 O2 . . 1.820(19) 1.820(19) 1.820(19) ?
  Ti13 O2 . 6_5555 1.87(2) 1.87(2) 1.87(2) ?
  Ti13 La11 . 2_5455 3.4546(15) 3.4546(15) 3.4546(15) ?
  Ti13 La31 . 5_5565 3.4964(19) 3.4964(19) 3.4964(19) ?
  Ti13 O11 . 5_5565 2.11(9) 2.11(9) 2.11(9) ?
  Ti13 O21 . 5_5565 2.275(17) 2.275(17) 2.275(17) ?
  Ti13 O21 . 2_5455 1.712(17) 1.712(17) 1.712(17) ?
  Fe13 O1 . . 2.00(8) 2.00(8) 2.00(8) ?
  Fe13 O2 . . 1.820(19) 1.820(19) 1.820(19) ?
  Fe13 O2 . 6_5555 1.87(2) 1.87(2) 1.87(2) ?
  Fe13 La11 . 2_5455 3.4546(15) 3.4546(15) 3.4546(15) ?
  Fe13 La31 . 5_5565 3.4964(19) 3.4964(19) 3.4964(19) ?
  Fe13 O11 . 5_5565 2.11(9) 2.11(9) 2.11(9) ?
  Fe13 O21 . 5_5565 2.275(17) 2.275(17) 2.275(17) ?
  Fe13 O21 . 2_5455 1.712(17) 1.712(17) 1.712(17) ?
  Ti21 O1 . 1_6555 1.99(2) 1.99(2) 1.99(2) ?
  Ti21 O3 . . 1.941(17) 1.941(17) 1.941(17) ?
  Ti21 O3 . 6_6555 2.027(18) 2.027(18) 2.027(18) ?
  Ti21 La11 . 5_5555 3.394(3) 3.394(3) 3.394(3) ?
  Ti21 La11 . 5_5565 3.416(3) 3.416(3) 3.416(3) ?
  Ti21 La11 . 2_6455 3.494(2) 3.494(2) 3.494(2) ?
  Ti21 La11 . 2_6555 3.346(2) 3.346(2) 3.346(2) ?
  Ti21 O11 . 5_5565 2.04(3) 2.04(3) 2.04(3) ?
  Ti21 O31 . 5_6565 1.964(3) 1.964(3) 1.964(3) ?
  Ti21 O31 . 2_5455 2.095(3) 2.095(3) 2.095(3) ?
  Fe21 O1 . 1_6555 1.99(2) 1.99(2) 1.99(2) ?
  Fe21 O3 . . 1.941(17) 1.941(17) 1.941(17) ?
  Fe21 O3 . 6_6555 2.027(18) 2.027(18) 2.027(18) ?
  Fe21 La11 . 5_5555 3.394(3) 3.394(3) 3.394(3) ?
  Fe21 La11 . 5_5565 3.416(3) 3.416(3) 3.416(3) ?
  Fe21 La11 . 2_6455 3.494(2) 3.494(2) 3.494(2) ?
  Fe21 La11 . 2_6555 3.346(2) 3.346(2) 3.346(2) ?
  Fe21 O11 . 5_5565 2.04(3) 2.04(3) 2.04(3) ?
  Fe21 O31 . 5_6565 1.964(3) 1.964(3) 1.964(3) ?
  Fe21 O31 . 2_5455 2.095(3) 2.095(3) 2.095(3) ?
  Ti23 O1 . 1_6555 2.01(8) 2.01(8) 2.01(8) ?
  Ti23 O3 . . 1.77(2) 1.77(2) 1.77(2) ?
  Ti23 O3 . 6_6555 1.87(2) 1.87(2) 1.87(2) ?
  Ti23 La11 . 2_6455 3.4877(15) 3.4877(15) 3.4877(15) ?
  Ti23 La31 . 5_5565 3.4703(18) 3.4703(18) 3.4703(18) ?
  Ti23 O11 . 5_5565 1.92(9) 1.92(9) 1.92(9) ?
  Ti23 O31 . 5_6565 2.318(17) 2.318(17) 2.318(17) ?
  Ti23 O31 . 2_5455 1.842(17) 1.842(17) 1.842(17) ?
  Fe23 O1 . 1_6555 2.01(8) 2.01(8) 2.01(8) ?
  Fe23 O3 . . 1.77(2) 1.77(2) 1.77(2) ?
  Fe23 O3 . 6_6555 1.87(2) 1.87(2) 1.87(2) ?
  Fe23 La11 . 2_6455 3.4877(15) 3.4877(15) 3.4877(15) ?
  Fe23 La31 . 5_5565 3.4703(18) 3.4703(18) 3.4703(18) ?
  Fe23 O11 . 5_5565 1.92(9) 1.92(9) 1.92(9) ?
  Fe23 O31 . 5_6565 2.318(17) 2.318(17) 2.318(17) ?
  Fe23 O31 . 2_5455 1.842(17) 1.842(17) 1.842(17) ?
  O1 O2 . . 2.82(6) 2.73(8) 2.94(8) ?
  O1 O2 . 6_5555 2.78(6) 2.76(8) 2.79(3) ?
  O1 O3 . 1_4555 2.81(6) 2.71(8) 2.91(8) ?
  O1 O3 . 6_5555 2.79(6) 2.75(8) 2.82(3) ?
  O1 La11 . 2_5455 2.79(4) 2.61(7) 2.97(2) ?
  O1 La11 . 2_5555 2.58(4) 2.46(7) 2.70(2) ?
  O1 Ti121 . 5_5565 2.05(9) 2.05(9) 2.05(9) ?
  O1 Fe121 . 5_5565 2.05(9) 2.05(9) 2.05(9) ?
  O1 Ti221 . 5_5565 2.00(8) 2.00(8) 2.00(8) ?
  O1 Fe221 . 5_5565 2.00(8) 2.00(8) 2.00(8) ?
  O1 O11 . 2_5465 3.57(7) 2.55(10) 4.13(10) ?
  O1 O11 . 2_5565 3.45(7) 2.94(7) 3.97(7) ?
  O1 O21 . 5_5565 2.82(6) 2.64(8) 3.11(8) ?
  O1 O21 . 2_5455 2.79(6) 2.38(8) 3.03(8) ?
  O1 O31 . 5_5565 2.82(6) 2.71(8) 3.02(8) ?
  O1 O31 . 2_4455 2.79(6) 2.45(8) 2.96(8) ?
  O2 O2 . 3_4555 2.85(3) 2.85(3) 2.85(3) ?
  O2 O2 . 7_5455 2.85(3) 2.85(3) 2.85(3) ?
  O2 O2 . 6_5545 2.83(3) 2.74(3) 2.89(2) ?
  O2 O2 . 6_5555 2.83(3) 2.74(3) 2.89(2) ?
  O2 O3 . 1_4555 3.55(3) 3.40(2) 3.70(3) ?
  O2 O3 . 3_4555 2.95(3) 2.95(3) 2.95(3) ?
  O2 O3 . 7_4455 2.77(3) 2.77(3) 2.77(3) ?
  O2 La11 . 5_5555 2.767(18) 2.741(18) 2.793(17) ?
  O2 La11 . 2_5555 2.752(18) 2.715(17) 2.788(18) ?
  O2 La31 . 5_5555 2.51(2) 2.51(2) 2.51(2) ?
  O2 La31 . 2_5555 2.44(2) 2.44(2) 2.44(2) ?
  O2 Ti121 . 5_5565 2.015(17) 2.015(17) 2.015(17) ?
  O2 Ti121 . 2_5555 2.166(18) 2.166(18) 2.166(18) ?
  O2 Fe121 . 5_5565 2.015(17) 2.015(17) 2.015(17) ?
  O2 Fe121 . 2_5555 2.166(18) 2.166(18) 2.166(18) ?
  O2 O11 . 5_5565 2.84(6) 2.66(3) 3.05(8) ?
  O2 O11 . 2_5555 2.83(6) 2.46(8) 3.51(7) ?
  O2 O21 . 5_5555 3.34(2) 3.283(18) 3.47(2) ?
  O2 O21 . 2_5455 2.78(2) 2.65(3) 2.945(18) ?
  O2 O21 . 2_5555 2.78(2) 2.589(17) 2.99(2) ?
  O3 O3 . 3_4555 2.87(3) 2.87(3) 2.87(3) ?
  O3 O3 . 7_5455 2.87(3) 2.87(3) 2.87(3) ?
  O3 O3 . 6_6545 2.84(3) 2.74(3) 2.92(3) ?
  O3 O3 . 6_6555 2.84(3) 2.74(3) 2.92(3) ?
  O3 La11 . 5_5555 2.761(17) 2.727(17) 2.795(18) ?
  O3 La11 . 2_6555 2.752(17) 2.712(18) 2.793(17) ?
  O3 La31 . 3_5455 2.53(2) 2.53(2) 2.53(2) ?
  O3 La31 . 5_5555 2.45(2) 2.45(2) 2.45(2) ?
  O3 La31 . 2_6555 2.471(19) 2.471(19) 2.471(19) ?
  O3 La31 . 4_5655 3.06(2) 3.06(2) 3.06(2) ?
  O3 Ti221 . 5_6565 2.029(18) 2.029(18) 2.029(18) ?
  O3 Ti221 . 2_5555 2.187(17) 2.187(17) 2.187(17) ?
  O3 Fe221 . 5_6565 2.029(18) 2.029(18) 2.029(18) ?
  O3 Fe221 . 2_5555 2.187(17) 2.187(17) 2.187(17) ?
  O3 O11 . 3_5465 3.23(7) 3.23(7) 3.23(7) ?
  O3 O11 . 5_5565 2.84(6) 2.61(3) 3.22(8) ?
  O3 O11 . 2_6555 2.81(6) 2.32(8) 3.63(8) ?
  O3 O11 . 4_5655 3.39(7) 3.39(7) 3.39(7) ?
  O3 O31 . 5_6555 3.25(2) 3.13(3) 3.40(2) ?
  O3 O31 . 2_5455 2.79(2) 2.66(3) 2.938(17) ?
  O3 O31 . 2_5555 2.78(2) 2.626(18) 2.89(2) ?
  La11 Ti121 . . 3.423(3) 3.423(3) 3.423(3) ?
  La11 Ti121 . 1_5565 3.371(3) 3.371(3) 3.371(3) ?
  La11 Ti121 . 6_4555 3.419(3) 3.419(3) 3.419(3) ?
  La11 Fe121 . . 3.423(3) 3.423(3) 3.423(3) ?
  La11 Fe121 . 1_5565 3.371(3) 3.371(3) 3.371(3) ?
  La11 Fe121 . 6_4555 3.419(3) 3.419(3) 3.419(3) ?
  La11 Ti221 . 1_6555 3.439(3) 3.439(3) 3.439(3) ?
  La11 Ti221 . 1_6565 3.399(3) 3.399(3) 3.399(3) ?
  La11 Ti221 . 6_4555 3.408(3) 3.408(3) 3.408(3) ?
  La11 Fe221 . 1_6555 3.439(3) 3.439(3) 3.439(3) ?
  La11 Fe221 . 1_6565 3.399(3) 3.399(3) 3.399(3) ?
  La11 Fe221 . 6_4555 3.408(3) 3.408(3) 3.408(3) ?
  La11 O11 . . 3.33(4) 3.07(2) 3.58(7) ?
  La11 O11 . 1_5565 2.42(4) 2.28(7) 2.56(2) ?
  La11 O21 . . 2.377(10) 2.362(17) 2.392(2) ?
  La11 O21 . 6_4455 3.124(10) 2.958(17) 3.290(2) ?
  La11 O31 . 1_6555 2.355(10) 2.326(17) 2.385(2) ?
  La11 O31 . 6_4455 3.179(10) 3.067(17) 3.290(2) ?
  La31 O11 . . 2.63(7) 2.63(7) 2.63(7) ?
  La31 O11 . 1_5565 3.02(7) 3.02(7) 3.02(7) ?
  La31 O21 . . 3.092(17) 3.092(17) 3.092(17) ?
  La31 O31 . 1_6555 2.965(17) 2.965(17) 2.965(17) ?
  Ti121 O11 . . 2.08(8) 2.08(8) 2.08(8) ?
  Ti121 O21 . . 2.178(17) 2.178(17) 2.178(17) ?
  Ti121 O21 . 6_4445 1.753(17) 1.753(17) 1.753(17) ?
  Fe121 O11 . . 2.08(8) 2.08(8) 2.08(8) ?
  Fe121 O21 . . 2.178(17) 2.178(17) 2.178(17) ?
  Fe121 O21 . 6_4445 1.753(17) 1.753(17) 1.753(17) ?
  Ti221 O11 . 1_4555 2.32(8) 2.32(8) 2.32(8) ?
  Ti221 O31 . . 2.081(17) 2.081(17) 2.081(17) ?
  Ti221 O31 . 6_3445 1.745(17) 1.745(17) 1.745(17) ?
  Fe221 O11 . 1_4555 2.32(8) 2.32(8) 2.32(8) ?
  Fe221 O31 . . 2.081(17) 2.081(17) 2.081(17) ?
  Fe221 O31 . 6_3445 1.745(17) 1.745(17) 1.745(17) ?
  O11 O21 . 1_5545 4.20(6) 3.49(7) 4.69(7) ?
  O11 O21 . . 3.02(6) 2.91(8) 3.16(8) ?
  O11 O21 . 6_4445 2.82(6) 1.96(9) 3.35(2) ?
  O11 O31 . 1_6555 3.01(6) 3.00(8) 3.04(2) ?
  O11 O31 . 6_4445 2.88(6) 2.27(9) 3.27(2) ?
  O21 O21 . 6_4445 2.837(17) 2.68(2) 2.92(2) ?
  O21 O21 . 6_4455 2.837(17) 2.68(2) 2.92(2) ?
  O21 O31 . 1_6555 3.558(17) 3.28(2) 3.90(2) ?
  O31 O31 . 6_3445 2.846(17) 2.79(2) 2.899(3) ?
  O31 O31 . 6_3455 2.846(17) 2.79(2) 2.899(3) ?

#=======================================================================
data_n6_320K
#=======================================================================

# 5. CHEMICAL DATA

_chemical_name_systematic
?
_chemical_name_common                    ?
_chemical_formula_moiety                 ?
_chemical_formula_structural             ?
_chemical_formula_analytical             ?
_chemical_formula_iupac                  ?
_chemical_formula_sum                    'Fe0.571 La3.429 O11.429 Ti2.858'
_chemical_formula_weight                 827.9
_chemical_melting_point                  ?
_chemical_compound_source                ?
_chemical_absolute_configuration         .

#=======================================================================

# 6. CRYSTAL DATA

_symmetry_cell_setting                   monoclinic
_space_group_ssg_name                    'X21/b(\a\b0)00'
loop_
 _space_group_symop_ssg_id
 _space_group_symop_ssg_operation_algebraic
 1   x1,x2,x3,x4
 2   -x1+1/4,-x2,x3+1/2,-x4+1/4
 3   -x1,-x2,-x3,-x4+1/2
 4   x1,x2+1/2,-x3+1/2,x4
 5   x1+3/4,x2+1/2,x3,x4+1/4
 6   -x1,-x2+1/2,x3+1/2,-x4+1/2
 7   -x1+3/4,-x2+1/2,-x3,-x4+3/4
 8   x1+3/4,x2,-x3+1/2,x4+1/4
 9   x1+1/2,x2,x3,x4+1/2
 10  -x1+3/4,-x2,x3+1/2,-x4+3/4
 11  -x1+1/2,-x2,-x3,-x4
 12  x1+1/2,x2+1/2,-x3+1/2,x4+1/2
 13  x1+1/4,x2+1/2,x3,x4+3/4
 14  -x1+1/2,-x2+1/2,x3+1/2,-x4
 15  -x1+1/4,-x2+1/2,-x3,-x4+1/4
 16  x1+1/4,x2,-x3+1/2,x4+3/4
_cell_length_a                           7.8339(19)
_cell_length_b                           5.2752(13)
_cell_length_c                           5.5520(18)
_cell_angle_alpha                        90
_cell_angle_beta                         90
_cell_angle_gamma                        89.990(16)
_cell_volume                             229.44(10)

loop_
 _jana_cell_twin_matrix_id
 _jana_cell_twin_volume_fraction
 _jana_cell_twin_matrix_1_1
 _jana_cell_twin_matrix_1_2
 _jana_cell_twin_matrix_1_3
 _jana_cell_twin_matrix_2_1
 _jana_cell_twin_matrix_2_2
 _jana_cell_twin_matrix_2_3
 _jana_cell_twin_matrix_3_1
 _jana_cell_twin_matrix_3_2
 _jana_cell_twin_matrix_3_3
1 0.5908(10)
1 0 0
0 1 0
0 0 1
2 0.4092(10)
1 0 0
0 -1 0
0 0 -1

_cell_modulation_dimension               1
loop_
 _cell_wave_vector_seq_id
 _cell_wave_vector_x
 _cell_wave_vector_y
 _cell_wave_vector_z
 1  0.000000  0.071429  0.000000

_jana_cell_commen_supercell_matrix_1_1   1
_jana_cell_commen_supercell_matrix_1_2   0
_jana_cell_commen_supercell_matrix_1_3   0
_jana_cell_commen_supercell_matrix_2_1   0
_jana_cell_commen_supercell_matrix_2_2   14
_jana_cell_commen_supercell_matrix_2_3   0
_jana_cell_commen_supercell_matrix_3_1   0
_jana_cell_commen_supercell_matrix_3_2   0
_jana_cell_commen_supercell_matrix_3_3   1

_jana_cell_commen_t_section_1            0.018

_cell_formula_units_Z                    1

_cell_measurement_reflns_used            0
_cell_measurement_theta_min              ?
_cell_measurement_theta_max              ?
_cell_measurement_temperature            320
_cell_special_details
?

_exptl_crystal_density_diffrn            5.9898
_exptl_crystal_density_meas              ?
_exptl_crystal_density_method            ?
_exptl_crystal_F_000                     366

_exptl_absorpt_coefficient_mu            18.89
_exptl_crystal_description               'thick plate'
_exptl_crystal_size_max                  0.12
_exptl_crystal_size_mid                  0.08
_exptl_crystal_size_min                  0.005
_exptl_crystal_size_rad                  ?
_exptl_crystal_colour                    'metallic gray'
_exptl_absorpt_correction_type           numerical
_exptl_absorpt_process_details           'SADABS (version 2008/1)'
_exptl_absorpt_correction_T_min          0.3526
_exptl_absorpt_correction_T_max          0.7476

#=======================================================================

# 7. EXPERIMENTAL DATA

_exptl_special_details                   ?

_diffrn_ambient_temperature              320
_diffrn_source                           ?
_diffrn_source_power                     ?
_diffrn_source_voltage                   55
_diffrn_source_current                   75
_diffrn_radiation_type                   'Mo K\a'
_diffrn_radiation_source                 'rotating anode X-ray tube'
_diffrn_radiation_wavelength             0.71069
_diffrn_radiation_monochromator          graphite
_diffrn_measurement_device               'Image-Plate diffractometer'
_diffrn_measurement_device_type          'MarResearch Mar345dtb'
_diffrn_detector                         'MarResearch Mar345'
_diffrn_detector_area_resol_mean         ?
_diffrn_measurement_method               'Rotating, \f scans'
_diffrn_measurement_specimen_support     ?

_diffrn_reflns_number                    52264
_diffrn_reflns_theta_min                 2.21
_diffrn_reflns_theta_max                 38.58
_diffrn_reflns_theta_full                32.93
_diffrn_measured_fraction_theta_max      0.89
_diffrn_measured_fraction_theta_full     0.98
_diffrn_reflns_av_R_equivalents          0.0464
_diffrn_reflns_av_sigmaI/netI            0.0364
_diffrn_reflns_limit_h_min               -13
_diffrn_reflns_limit_h_max               13
_diffrn_reflns_limit_k_min               -9
_diffrn_reflns_limit_k_max               9
_diffrn_reflns_limit_l_min               -8
_diffrn_reflns_limit_l_max               8
_diffrn_reflns_limit_index_m_1_min       -7
_diffrn_reflns_limit_index_m_1_max       7
_diffrn_reflns_reduction_process         ?

_diffrn_standards_number                 0
_diffrn_standards_interval_count         ?
_diffrn_standards_interval_time          ?
_diffrn_standards_decay_%                ?
loop_
_diffrn_standard_refln_index_h
_diffrn_standard_refln_index_k
_diffrn_standard_refln_index_l
  ? ? ?

_diffrn_radiation_probe                  x-ray

#=======================================================================

# 8. REFINEMENT DATA

_refine_special_details
?

_reflns_number_total                     11906
_reflns_number_gt                        10996
_reflns_threshold_expression             'I>3\s(I)'

_refine_ls_structure_factor_coef         F
_refine_ls_R_factor_gt                   0.0620
_refine_ls_wR_factor_gt                  0.0829
_refine_ls_R_factor_all                  0.0671
_refine_ls_wR_factor_ref                 0.0836
_refine_ls_goodness_of_fit_ref           3.25
_refine_ls_goodness_of_fit_gt            3.35
_refine_ls_restrained_S_gt               ?
_refine_ls_restrained_S_all              ?
_refine_ls_number_reflns                 11906
_refine_ls_number_parameters             161
_refine_ls_number_restraints             0
_refine_ls_number_constraints            8
_refine_ls_weighting_scheme              sigma
_refine_ls_weighting_details             'w=1/(\s^2^(F)+0.0001F^2^)'
_refine_ls_hydrogen_treatment            ?
_refine_ls_shift/su_max                  0.0089
_refine_ls_shift/su_mean                 0.0005
_refine_diff_density_max                 18.21
_refine_diff_density_min                 -5.15
_refine_ls_extinction_method             'none'
_refine_ls_extinction_coef               ?
_refine_ls_abs_structure_details         ?
_refine_ls_abs_structure_Flack           ?
_refine_ls_abs_structure_Rogers          ?

loop_
 _atom_type_symbol
 _atom_type_scat_dispersion_real
 _atom_type_scat_dispersion_imag
 _atom_type_scat_source
 Fe  0.3463  0.8444
 'International Tables Vol C tables 4.2.6.8 and 6.1.1.1'
 La -0.2871  2.4523
 'International Tables Vol C tables 4.2.6.8 and 6.1.1.1'
 O   0.0106  0.0060
 'International Tables Vol C tables 4.2.6.8 and 6.1.1.1'
 Ti  0.2776  0.4457
 'International Tables Vol C tables 4.2.6.8 and 6.1.1.1'

_computing_data_collection               ?
_computing_cell_refinement               ?
_computing_data_reduction                ?
_computing_structure_solution            ?
_computing_structure_refinement          ?
_computing_molecular_graphics            ?
_computing_publication_material          ?

#=======================================================================

# 9. ATOMIC COORDINATES AND DISPLACEMENT PARAMETERS

loop_
 _atom_site_label
 _atom_site_type_symbol
 _atom_site_fract_x
 _atom_site_fract_y
 _atom_site_fract_z
 _atom_site_adp_type
 _atom_site_U_iso_or_equiv
 _atom_site_symmetry_multiplicity
 _atom_site_occupancy
 _atom_site_calc_flag
 _atom_site_refinement_flags
 _atom_site_disorder_assembly
 _atom_site_disorder_group
  La1 La -0.00022(2) -0.01726(4) 0.00253(4) Uani 0.00792(6) 16 0.1429 d . . .
  La2 La -0.00164(10) 0.29585(9) -0.08961(14) Uani 0.00848(9) 16 0.0357 d . . .
  La3 La -0.00237(11) -0.23353(11) 0.05001(15) Uani 0.01473(13) 16 0.0357 d . .
 .
  Ti11 Ti 0.25 0 0.5 Uani 0.00551(19) 8 0.023(2) d . . .
  Fe11 Fe 0.25 0 0.5 Uani 0.00551(19) 8 0.048(2) d . . .
  Ti12 Ti 0.25 0 0.5 Uani 0.00551(19) 16 0.0282(10) d . . .
  Fe12 Fe 0.25 0 0.5 Uani 0.00551(19) 16 0.0075(10) d . . .
  Ti13 Ti 0.25 0 0.5 Uani 0.00551(19) 16 0.0352(9) d . . .
  Fe13 Fe 0.25 0 0.5 Uani 0.00551(19) 16 0.0005(9) d . . .
  Ti21 Ti 0.75 0 0.5 Uani 0.00526(19) 8 0.024(2) d . . .
  Fe21 Fe 0.75 0 0.5 Uani 0.00526(19) 8 0.048(2) d . . .
  Ti22 Ti 0.75 0 0.5 Uani 0.00526(19) 16 0.0281(10) d . . .
  Fe22 Fe 0.75 0 0.5 Uani 0.00526(19) 16 0.0077(10) d . . .
  Ti23 Ti 0.75 0 0.5 Uani 0.00526(19) 16 0.0343(9) d . . .
  Fe23 Fe 0.75 0 0.5 Uani 0.00526(19) 16 0.0014(9) d . . .
  O1 O -0.0004(3) 0.0066(4) 0.5559(5) Uani 0.0102(5) 16 0.2143 d . . .
  O2 O 0.2255(3) 0.2153(4) 0.2099(4) Uani 0.0095(5) 16 0.25 d . . .
  O3 O 0.7756(3) 0.2088(4) 0.2060(4) Uani 0.0092(5) 16 0.25 d . . .

loop_
 _atom_site_aniso_label
 _atom_site_aniso_type_symbol
 _atom_site_aniso_U_11
 _atom_site_aniso_U_22
 _atom_site_aniso_U_33
 _atom_site_aniso_U_12
 _atom_site_aniso_U_13
 _atom_site_aniso_U_23
 La1 La 0.00441(11) 0.01285(9) 0.00649(14) 0.00010(9) -0.00006(12) -0.00165(7)
 La2 La 0.00316(13) 0.01693(15) 0.0054(2) -0.00020(18) -0.00080(16) -0.00203(14)
 La3 La 0.00331(15) 0.0276(2) 0.0133(3) -0.0001(2) -0.0001(2) -0.00712(17)
 Ti11 Ti 0.0046(3) 0.0091(2) 0.0029(4) -0.0025(5) -0.0017(5) 0.00001(19)
 Fe11 Fe 0.0046(3) 0.0091(2) 0.0029(4) -0.0025(5) -0.0017(5) 0.00001(19)
 Ti12 Ti 0.0046(3) 0.0091(2) 0.0029(4) -0.0025(5) -0.0017(5) 0.00001(19)
 Fe12 Fe 0.0046(3) 0.0091(2) 0.0029(4) -0.0025(5) -0.0017(5) 0.00001(19)
 Ti13 Ti 0.0046(3) 0.0091(2) 0.0029(4) -0.0025(5) -0.0017(5) 0.00001(19)
 Fe13 Fe 0.0046(3) 0.0091(2) 0.0029(4) -0.0025(5) -0.0017(5) 0.00001(19)
 Ti21 Ti 0.0042(3) 0.0090(2) 0.0027(4) -0.0026(5) -0.0015(5) 0.00051(19)
 Fe21 Fe 0.0042(3) 0.0090(2) 0.0027(4) -0.0026(5) -0.0015(5) 0.00051(19)
 Ti22 Ti 0.0042(3) 0.0090(2) 0.0027(4) -0.0026(5) -0.0015(5) 0.00051(19)
 Fe22 Fe 0.0042(3) 0.0090(2) 0.0027(4) -0.0026(5) -0.0015(5) 0.00051(19)
 Ti23 Ti 0.0042(3) 0.0090(2) 0.0027(4) -0.0026(5) -0.0015(5) 0.00051(19)
 Fe23 Fe 0.0042(3) 0.0090(2) 0.0027(4) -0.0026(5) -0.0015(5) 0.00051(19)
 O1 O 0.0014(7) 0.0176(8) 0.0115(11) 0.0005(8) 0.0002(6) 0.0004(7)
 O2 O 0.0092(10) 0.0154(8) 0.0039(9) -0.0014(7) 0.0000(7) 0.0028(7)
 O3 O 0.0082(10) 0.0141(8) 0.0053(10) 0.0005(6) 0.0008(7) 0.0026(6)


loop_
 _atom_site_Fourier_wave_vector_seq_id
 _jana_atom_site_Fourier_wave_vector_q1_coeff
    1    1
    2    2
    3    3
    4    4
    5    5
    6    6
    7    7
    8    8
    9    9
   10   10
   11   11
   12   12

loop_
 _jana_atom_site_crenel_ortho_func_id
 _jana_atom_site_crenel_ortho_func_c
 _jana_atom_site_crenel_ortho_func_w
 _jana_atom_site_crenel_ortho_func_eps
 1  0.000000  0.142857  0.950000
 2  0.110424  0.035714  0.950000
 3 -0.105974  0.035714  0.950000
 4  0.000000  0.214286  0.950000
 5  0.000000  0.250000  0.950000
 6  0.000000  0.250000  0.950000

loop_
 _atom_site_occ_special_func_atom_site_label
 _atom_site_occ_special_func_crenel_c
 _atom_site_occ_special_func_crenel_w
 La1  0  0.1429
 La2  0.110424(6)  0.0357
 La3 -0.105974(8)  0.0357
 Ti11  0  0.0714
 Fe11  0  0.0714
 Ti12  0.0536  0.0357
 Fe12  0.0536  0.0357
 Ti13  0.0893  0.0357
 Fe13  0.0893  0.0357
 Ti21  0  0.0714
 Fe21  0  0.0714
 Ti22  0.0536  0.0357
 Fe22  0.0536  0.0357
 Ti23  0.0893  0.0357
 Fe23  0.0893  0.0357
 O1  0  0.2143
 O2  0  0.25
 O3  0  0.25

loop_
 _atom_site_displace_Fourier_atom_site_label
 _atom_site_displace_Fourier_axis
 _atom_site_displace_Fourier_wave_vector_seq_id
 _atom_site_displace_Fourier_param_cos
 _atom_site_displace_Fourier_param_sin
 Ti11  x  1     0               -0.0066(7)
 Ti11  y  1     0                0.1435(4)
 Ti11  z  1     0               -0.0608(5)
 Ti11  x  2     0                0
 Ti11  y  2     0                0
 Ti11  z  2     0                0
 Ti11  x  3     0                0
 Ti11  y  3     0                0
 Ti11  z  3     0                0
 Ti11  x  4     0                0
 Ti11  y  4     0                0
 Ti11  z  4     0                0
 Ti11  x  5     0                0
 Ti11  y  5     0                0
 Ti11  z  5     0                0
 Ti11  x  6     0                0.0006(4)
 Ti11  y  6     0                0.01131(19)
 Ti11  z  6     0                0.0223(2)
 Ti11  x  7     0                0
 Ti11  y  7     0                0
 Ti11  z  7     0                0
 Ti11  x  8     0                0
 Ti11  y  8     0                0
 Ti11  z  8     0                0
 Ti11  x  9     0                0
 Ti11  y  9     0                0
 Ti11  z  9     0                0
 Ti11  x 10     0                0
 Ti11  y 10     0                0
 Ti11  z 10     0                0
 Ti11  x 11     0                0
 Ti11  y 11     0                0
 Ti11  z 11     0                0
 Ti11  x 12     0                0.0008(2)
 Ti11  y 12     0               -0.00798(15)
 Ti11  z 12     0               -0.0118(3)
 Fe11  x  1     0               -0.0066(7)
 Fe11  y  1     0                0.1435(4)
 Fe11  z  1     0               -0.0608(5)
 Fe11  x  2     0                0
 Fe11  y  2     0                0
 Fe11  z  2     0                0
 Fe11  x  3     0                0
 Fe11  y  3     0                0
 Fe11  z  3     0                0
 Fe11  x  4     0                0
 Fe11  y  4     0                0
 Fe11  z  4     0                0
 Fe11  x  5     0                0
 Fe11  y  5     0                0
 Fe11  z  5     0                0
 Fe11  x  6     0                0.0006(4)
 Fe11  y  6     0                0.01131(19)
 Fe11  z  6     0                0.0223(2)
 Fe11  x  7     0                0
 Fe11  y  7     0                0
 Fe11  z  7     0                0
 Fe11  x  8     0                0
 Fe11  y  8     0                0
 Fe11  z  8     0                0
 Fe11  x  9     0                0
 Fe11  y  9     0                0
 Fe11  z  9     0                0
 Fe11  x 10     0                0
 Fe11  y 10     0                0
 Fe11  z 10     0                0
 Fe11  x 11     0                0
 Fe11  y 11     0                0
 Fe11  z 11     0                0
 Fe11  x 12     0                0.0008(2)
 Fe11  y 12     0               -0.00798(15)
 Fe11  z 12     0               -0.0118(3)
 Ti12  x  1     0               -0.0066(7)
 Ti12  y  1     0                0.1435(4)
 Ti12  z  1     0               -0.0608(5)
 Ti12  x  2     0                0
 Ti12  y  2     0                0
 Ti12  z  2     0                0
 Ti12  x  3     0                0
 Ti12  y  3     0                0
 Ti12  z  3     0                0
 Ti12  x  4     0                0
 Ti12  y  4     0                0
 Ti12  z  4     0                0
 Ti12  x  5     0                0
 Ti12  y  5     0                0
 Ti12  z  5     0                0
 Ti12  x  6     0                0.0006(4)
 Ti12  y  6     0                0.01131(19)
 Ti12  z  6     0                0.0223(2)
 Ti12  x  7     0                0
 Ti12  y  7     0                0
 Ti12  z  7     0                0
 Ti12  x  8     0                0
 Ti12  y  8     0                0
 Ti12  z  8     0                0
 Ti12  x  9     0                0
 Ti12  y  9     0                0
 Ti12  z  9     0                0
 Ti12  x 10     0                0
 Ti12  y 10     0                0
 Ti12  z 10     0                0
 Ti12  x 11     0                0
 Ti12  y 11     0                0
 Ti12  z 11     0                0
 Ti12  x 12     0                0.0008(2)
 Ti12  y 12     0               -0.00798(15)
 Ti12  z 12     0               -0.0118(3)
 Fe12  x  1     0               -0.0066(7)
 Fe12  y  1     0                0.1435(4)
 Fe12  z  1     0               -0.0608(5)
 Fe12  x  2     0                0
 Fe12  y  2     0                0
 Fe12  z  2     0                0
 Fe12  x  3     0                0
 Fe12  y  3     0                0
 Fe12  z  3     0                0
 Fe12  x  4     0                0
 Fe12  y  4     0                0
 Fe12  z  4     0                0
 Fe12  x  5     0                0
 Fe12  y  5     0                0
 Fe12  z  5     0                0
 Fe12  x  6     0                0.0006(4)
 Fe12  y  6     0                0.01131(19)
 Fe12  z  6     0                0.0223(2)
 Fe12  x  7     0                0
 Fe12  y  7     0                0
 Fe12  z  7     0                0
 Fe12  x  8     0                0
 Fe12  y  8     0                0
 Fe12  z  8     0                0
 Fe12  x  9     0                0
 Fe12  y  9     0                0
 Fe12  z  9     0                0
 Fe12  x 10     0                0
 Fe12  y 10     0                0
 Fe12  z 10     0                0
 Fe12  x 11     0                0
 Fe12  y 11     0                0
 Fe12  z 11     0                0
 Fe12  x 12     0                0.0008(2)
 Fe12  y 12     0               -0.00798(15)
 Fe12  z 12     0               -0.0118(3)
 Ti13  x  1     0               -0.0066(7)
 Ti13  y  1     0                0.1435(4)
 Ti13  z  1     0               -0.0608(5)
 Ti13  x  2     0                0
 Ti13  y  2     0                0
 Ti13  z  2     0                0
 Ti13  x  3     0                0
 Ti13  y  3     0                0
 Ti13  z  3     0                0
 Ti13  x  4     0                0
 Ti13  y  4     0                0
 Ti13  z  4     0                0
 Ti13  x  5     0                0
 Ti13  y  5     0                0
 Ti13  z  5     0                0
 Ti13  x  6     0                0.0006(4)
 Ti13  y  6     0                0.01131(19)
 Ti13  z  6     0                0.0223(2)
 Ti13  x  7     0                0
 Ti13  y  7     0                0
 Ti13  z  7     0                0
 Ti13  x  8     0                0
 Ti13  y  8     0                0
 Ti13  z  8     0                0
 Ti13  x  9     0                0
 Ti13  y  9     0                0
 Ti13  z  9     0                0
 Ti13  x 10     0                0
 Ti13  y 10     0                0
 Ti13  z 10     0                0
 Ti13  x 11     0                0
 Ti13  y 11     0                0
 Ti13  z 11     0                0
 Ti13  x 12     0                0.0008(2)
 Ti13  y 12     0               -0.00798(15)
 Ti13  z 12     0               -0.0118(3)
 Fe13  x  1     0               -0.0066(7)
 Fe13  y  1     0                0.1435(4)
 Fe13  z  1     0               -0.0608(5)
 Fe13  x  2     0                0
 Fe13  y  2     0                0
 Fe13  z  2     0                0
 Fe13  x  3     0                0
 Fe13  y  3     0                0
 Fe13  z  3     0                0
 Fe13  x  4     0                0
 Fe13  y  4     0                0
 Fe13  z  4     0                0
 Fe13  x  5     0                0
 Fe13  y  5     0                0
 Fe13  z  5     0                0
 Fe13  x  6     0                0.0006(4)
 Fe13  y  6     0                0.01131(19)
 Fe13  z  6     0                0.0223(2)
 Fe13  x  7     0                0
 Fe13  y  7     0                0
 Fe13  z  7     0                0
 Fe13  x  8     0                0
 Fe13  y  8     0                0
 Fe13  z  8     0                0
 Fe13  x  9     0                0
 Fe13  y  9     0                0
 Fe13  z  9     0                0
 Fe13  x 10     0                0
 Fe13  y 10     0                0
 Fe13  z 10     0                0
 Fe13  x 11     0                0
 Fe13  y 11     0                0
 Fe13  z 11     0                0
 Fe13  x 12     0                0.0008(2)
 Fe13  y 12     0               -0.00798(15)
 Fe13  z 12     0               -0.0118(3)
 Ti21  x  1     0               -0.0013(7)
 Ti21  y  1     0                0.1565(4)
 Ti21  z  1     0               -0.0646(5)
 Ti21  x  2     0                0
 Ti21  y  2     0                0
 Ti21  z  2     0                0
 Ti21  x  3     0                0
 Ti21  y  3     0                0
 Ti21  z  3     0                0
 Ti21  x  4     0                0
 Ti21  y  4     0                0
 Ti21  z  4     0                0
 Ti21  x  5     0                0
 Ti21  y  5     0                0
 Ti21  z  5     0                0
 Ti21  x  6     0               -0.0014(3)
 Ti21  y  6     0                0.00972(19)
 Ti21  z  6     0                0.0221(2)
 Ti21  x  7     0                0
 Ti21  y  7     0                0
 Ti21  z  7     0                0
 Ti21  x  8     0                0
 Ti21  y  8     0                0
 Ti21  z  8     0                0
 Ti21  x  9     0                0
 Ti21  y  9     0                0
 Ti21  z  9     0                0
 Ti21  x 10     0                0
 Ti21  y 10     0                0
 Ti21  z 10     0                0
 Ti21  x 11     0                0
 Ti21  y 11     0                0
 Ti21  z 11     0                0
 Ti21  x 12     0                0.0028(2)
 Ti21  y 12     0               -0.00881(15)
 Ti21  z 12     0               -0.0117(3)
 Fe21  x  1     0               -0.0013(7)
 Fe21  y  1     0                0.1565(4)
 Fe21  z  1     0               -0.0646(5)
 Fe21  x  2     0                0
 Fe21  y  2     0                0
 Fe21  z  2     0                0
 Fe21  x  3     0                0
 Fe21  y  3     0                0
 Fe21  z  3     0                0
 Fe21  x  4     0                0
 Fe21  y  4     0                0
 Fe21  z  4     0                0
 Fe21  x  5     0                0
 Fe21  y  5     0                0
 Fe21  z  5     0                0
 Fe21  x  6     0               -0.0014(3)
 Fe21  y  6     0                0.00972(19)
 Fe21  z  6     0                0.0221(2)
 Fe21  x  7     0                0
 Fe21  y  7     0                0
 Fe21  z  7     0                0
 Fe21  x  8     0                0
 Fe21  y  8     0                0
 Fe21  z  8     0                0
 Fe21  x  9     0                0
 Fe21  y  9     0                0
 Fe21  z  9     0                0
 Fe21  x 10     0                0
 Fe21  y 10     0                0
 Fe21  z 10     0                0
 Fe21  x 11     0                0
 Fe21  y 11     0                0
 Fe21  z 11     0                0
 Fe21  x 12     0                0.0028(2)
 Fe21  y 12     0               -0.00881(15)
 Fe21  z 12     0               -0.0117(3)
 Ti22  x  1     0               -0.0013(7)
 Ti22  y  1     0                0.1565(4)
 Ti22  z  1     0               -0.0646(5)
 Ti22  x  2     0                0
 Ti22  y  2     0                0
 Ti22  z  2     0                0
 Ti22  x  3     0                0
 Ti22  y  3     0                0
 Ti22  z  3     0                0
 Ti22  x  4     0                0
 Ti22  y  4     0                0
 Ti22  z  4     0                0
 Ti22  x  5     0                0
 Ti22  y  5     0                0
 Ti22  z  5     0                0
 Ti22  x  6     0               -0.0014(3)
 Ti22  y  6     0                0.00972(19)
 Ti22  z  6     0                0.0221(2)
 Ti22  x  7     0                0
 Ti22  y  7     0                0
 Ti22  z  7     0                0
 Ti22  x  8     0                0
 Ti22  y  8     0                0
 Ti22  z  8     0                0
 Ti22  x  9     0                0
 Ti22  y  9     0                0
 Ti22  z  9     0                0
 Ti22  x 10     0                0
 Ti22  y 10     0                0
 Ti22  z 10     0                0
 Ti22  x 11     0                0
 Ti22  y 11     0                0
 Ti22  z 11     0                0
 Ti22  x 12     0                0.0028(2)
 Ti22  y 12     0               -0.00881(15)
 Ti22  z 12     0               -0.0117(3)
 Fe22  x  1     0               -0.0013(7)
 Fe22  y  1     0                0.1565(4)
 Fe22  z  1     0               -0.0646(5)
 Fe22  x  2     0                0
 Fe22  y  2     0                0
 Fe22  z  2     0                0
 Fe22  x  3     0                0
 Fe22  y  3     0                0
 Fe22  z  3     0                0
 Fe22  x  4     0                0
 Fe22  y  4     0                0
 Fe22  z  4     0                0
 Fe22  x  5     0                0
 Fe22  y  5     0                0
 Fe22  z  5     0                0
 Fe22  x  6     0               -0.0014(3)
 Fe22  y  6     0                0.00972(19)
 Fe22  z  6     0                0.0221(2)
 Fe22  x  7     0                0
 Fe22  y  7     0                0
 Fe22  z  7     0                0
 Fe22  x  8     0                0
 Fe22  y  8     0                0
 Fe22  z  8     0                0
 Fe22  x  9     0                0
 Fe22  y  9     0                0
 Fe22  z  9     0                0
 Fe22  x 10     0                0
 Fe22  y 10     0                0
 Fe22  z 10     0                0
 Fe22  x 11     0                0
 Fe22  y 11     0                0
 Fe22  z 11     0                0
 Fe22  x 12     0                0.0028(2)
 Fe22  y 12     0               -0.00881(15)
 Fe22  z 12     0               -0.0117(3)
 Ti23  x  1     0               -0.0013(7)
 Ti23  y  1     0                0.1565(4)
 Ti23  z  1     0               -0.0646(5)
 Ti23  x  2     0                0
 Ti23  y  2     0                0
 Ti23  z  2     0                0
 Ti23  x  3     0                0
 Ti23  y  3     0                0
 Ti23  z  3     0                0
 Ti23  x  4     0                0
 Ti23  y  4     0                0
 Ti23  z  4     0                0
 Ti23  x  5     0                0
 Ti23  y  5     0                0
 Ti23  z  5     0                0
 Ti23  x  6     0               -0.0014(3)
 Ti23  y  6     0                0.00972(19)
 Ti23  z  6     0                0.0221(2)
 Ti23  x  7     0                0
 Ti23  y  7     0                0
 Ti23  z  7     0                0
 Ti23  x  8     0                0
 Ti23  y  8     0                0
 Ti23  z  8     0                0
 Ti23  x  9     0                0
 Ti23  y  9     0                0
 Ti23  z  9     0                0
 Ti23  x 10     0                0
 Ti23  y 10     0                0
 Ti23  z 10     0                0
 Ti23  x 11     0                0
 Ti23  y 11     0                0
 Ti23  z 11     0                0
 Ti23  x 12     0                0.0028(2)
 Ti23  y 12     0               -0.00881(15)
 Ti23  z 12     0               -0.0117(3)
 Fe23  x  1     0               -0.0013(7)
 Fe23  y  1     0                0.1565(4)
 Fe23  z  1     0               -0.0646(5)
 Fe23  x  2     0                0
 Fe23  y  2     0                0
 Fe23  z  2     0                0
 Fe23  x  3     0                0
 Fe23  y  3     0                0
 Fe23  z  3     0                0
 Fe23  x  4     0                0
 Fe23  y  4     0                0
 Fe23  z  4     0                0
 Fe23  x  5     0                0
 Fe23  y  5     0                0
 Fe23  z  5     0                0
 Fe23  x  6     0               -0.0014(3)
 Fe23  y  6     0                0.00972(19)
 Fe23  z  6     0                0.0221(2)
 Fe23  x  7     0                0
 Fe23  y  7     0                0
 Fe23  z  7     0                0
 Fe23  x  8     0                0
 Fe23  y  8     0                0
 Fe23  z  8     0                0
 Fe23  x  9     0                0
 Fe23  y  9     0                0
 Fe23  z  9     0                0
 Fe23  x 10     0                0
 Fe23  y 10     0                0
 Fe23  z 10     0                0
 Fe23  x 11     0                0
 Fe23  y 11     0                0
 Fe23  z 11     0                0
 Fe23  x 12     0                0.0028(2)
 Fe23  y 12     0               -0.00881(15)
 Fe23  z 12     0               -0.0117(3)

loop_
 _jana_atom_site_displace_crenel_ortho_atom_site_label
 _jana_atom_site_displace_crenel_ortho_axis
 _jana_atom_site_displace_crenel_ortho_id
 _jana_atom_site_displace_crenel_ortho_param_order
 _jana_atom_site_displace_crenel_ortho_param_coeff
 La1   x  1  1  0.00007(10)
 La1   y  1  1  0.03822(4)
 La1   z  1  1  0.00045(6)
 La1   x  1  2  0.00016(3)
 La1   y  1  2 -0.00062(4)
 La1   z  1  2  0.00053(4)
 O1    x  4  1  0.0001(5)
 O1    y  4  1  0.0226(6)
 O1    z  4  1 -0.0098(5)
 O1    x  4  2  0.0004(3)
 O1    y  4  2  0.0081(5)
 O1    z  4  2  0.0052(6)
 O1    x  4  3  0.0000(7)
 O1    y  4  3 -0.0058(8)
 O1    z  4  3  0.0052(8)
 O1    x  4  4  0.0003(4)
 O1    y  4  4 -0.0062(6)
 O1    z  4  4 -0.0014(6)
 O1    x  4  5 -0.0001(8)
 O1    y  4  5  0.0095(10)
 O1    z  4  5  0.0039(10)
 O1    x  4  6  0
 O1    y  4  6  0
 O1    z  4  6  0
 O2    x  5  1  0.0016(3)
 O2    y  5  1  0.0355(5)
 O2    z  5  1  0.0011(4)
 O2    x  5  2 -0.0083(3)
 O2    y  5  2 -0.0040(4)
 O2    z  5  2  0.0142(5)
 O2    x  5  3  0.0056(4)
 O2    y  5  3 -0.0046(5)
 O2    z  5  3 -0.0058(5)
 O2    x  5  4  0.0031(3)
 O2    y  5  4  0.0081(5)
 O2    z  5  4 -0.0038(5)
 O2    x  5  5 -0.0072(4)
 O2    y  5  5  0.0061(6)
 O2    z  5  5  0.0027(6)
 O2    x  5  6  0
 O2    y  5  6  0
 O2    z  5  6  0
 O3    x  6  1 -0.0019(3)
 O3    y  6  1  0.0374(4)
 O3    z  6  1  0.0011(4)
 O3    x  6  2  0.0061(3)
 O3    y  6  2  0.0025(4)
 O3    z  6  2  0.0167(5)
 O3    x  6  3 -0.0058(4)
 O3    y  6  3 -0.0034(5)
 O3    z  6  3 -0.0061(5)
 O3    x  6  4 -0.0013(3)
 O3    y  6  4  0.0044(5)
 O3    z  6  4 -0.0042(5)
 O3    x  6  5  0.0068(4)
 O3    y  6  5  0.0047(6)
 O3    z  6  5  0.0026(6)
 O3    x  6  6  0
 O3    y  6  6  0
 O3    z  6  6  0

loop_
 _jana_atom_site_U_crenel_ortho_atom_site_label
 _jana_atom_site_U_crenel_ortho_tens_elem
 _jana_atom_site_U_crenel_ortho_id
 _jana_atom_site_U_crenel_ortho_param_order
 _jana_atom_site_U_crenel_ortho_param_coeff
 La1   U11  1  1  0.00041(6)
 La1   U22  1  1  0.00050(7)
 La1   U33  1  1  0.00104(9)
 La1   U12  1  1  0.00011(9)
 La1   U13  1  1  0.00012(6)
 La1   U23  1  1 -0.00025(10)
 La1   U11  1  2  0.00068(7)
 La1   U22  1  2  0.00055(7)
 La1   U33  1  2 -0.00089(10)
 La1   U12  1  2 -0.00014(10)
 La1   U13  1  2  0.00021(16)
 La1   U23  1  2  0.00040(8)
 La1   U11  1  3 -0.00031(9)
 La1   U22  1  3  0.00085(9)
 La1   U33  1  3 -0.00027(13)
 La1   U12  1  3 -0.00017(8)
 La1   U13  1  3 -0.00015(9)
 La1   U23  1  3 -0.00029(17)
 La1   U11  1  4  0
 La1   U22  1  4  0
 La1   U33  1  4  0
 La1   U12  1  4  0
 La1   U13  1  4  0
 La1   U23  1  4  0


#=======================================================================

# 10. MOLECULAR GEOMETRY


loop_
 _geom_bond_atom_site_label_1
 _geom_bond_atom_site_label_2
 _geom_bond_site_ssg_symmetry_1
 _geom_bond_site_ssg_symmetry_2
 _geom_bond_distance_av
 _geom_bond_distance_min
 _geom_bond_distance_max
 _geom_bond_publ_flag
  La1 Ti11 . 1_5545 3.436(3) 3.436(3) 3.436(3) ?
  La1 Ti11 . . 3.366(3) 3.366(3) 3.366(3) ?
  La1 Ti11 . 6_5445 3.340(2) 3.340(2) 3.340(2) ?
  La1 Fe11 . 1_5545 3.436(3) 3.436(3) 3.436(3) ?
  La1 Fe11 . . 3.366(3) 3.366(3) 3.366(3) ?
  La1 Fe11 . 6_5445 3.340(2) 3.340(2) 3.340(2) ?
  La1 Ti13 . 6_5445 3.3239(14) 3.3239(14) 3.3239(14) ?
  La1 Fe13 . 6_5445 3.3239(14) 3.3239(14) 3.3239(14) ?
  La1 Ti21 . 1_4545 3.427(3) 3.427(3) 3.427(3) ?
  La1 Ti21 . 1_4555 3.354(3) 3.354(3) 3.354(3) ?
  La1 Ti21 . 6_5445 3.3483(19) 3.3483(19) 3.3483(19) ?
  La1 Fe21 . 1_4545 3.427(3) 3.427(3) 3.427(3) ?
  La1 Fe21 . 1_4555 3.354(3) 3.354(3) 3.354(3) ?
  La1 Fe21 . 6_5445 3.3483(19) 3.3483(19) 3.3483(19) ?
  La1 Ti23 . 6_5445 3.3388(14) 3.3388(14) 3.3388(14) ?
  La1 Fe23 . 6_5445 3.3388(14) 3.3388(14) 3.3388(14) ?
  La1 O1 . 1_5545 2.45(5) 2.44(2) 2.47(7) ?
  La1 O1 . . 3.13(5) 3.12(2) 3.13(7) ?
  La1 O2 . . 2.479(18) 2.426(18) 2.533(18) ?
  La1 O2 . 6_5545 3.188(18) 3.139(18) 3.237(18) ?
  La1 O3 . 1_4555 2.464(18) 2.420(17) 2.508(18) ?
  La1 O3 . 6_5545 3.197(18) 3.158(18) 3.236(17) ?
  La1 Ti121 . 5_5555 3.458(3) 3.458(3) 3.458(3) ?
  La1 Ti121 . 5_5565 3.362(3) 3.362(3) 3.362(3) ?
  La1 Fe121 . 5_5555 3.458(3) 3.458(3) 3.458(3) ?
  La1 Fe121 . 5_5565 3.362(3) 3.362(3) 3.362(3) ?
  La1 Ti221 . 5_5555 3.420(3) 3.420(3) 3.420(3) ?
  La1 Ti221 . 5_5565 3.336(3) 3.336(3) 3.336(3) ?
  La1 Fe221 . 5_5555 3.420(3) 3.420(3) 3.420(3) ?
  La1 Fe221 . 5_5565 3.336(3) 3.336(3) 3.336(3) ?
  La1 O11 . 2_5455 3.02(5) 2.86(7) 3.18(2) ?
  La1 O11 . 2_5555 3.02(5) 2.44(2) 3.61(7) ?
  La1 O21 . 5_5555 2.730(10) 2.662(2) 2.799(17) ?
  La1 O21 . 2_5455 2.899(10) 2.883(2) 2.915(17) ?
  La1 O31 . 5_5555 2.687(10) 2.618(2) 2.755(17) ?
  La1 O31 . 2_4455 2.909(10) 2.901(17) 2.916(2) ?
  La2 Ti13 . 1_5545 3.3942(17) 3.3942(17) 3.3942(17) ?
  La2 Ti13 . 8_5645 3.3537(9) 3.3537(9) 3.3537(9) ?
  La2 Fe13 . 1_5545 3.3942(17) 3.3942(17) 3.3942(17) ?
  La2 Fe13 . 8_5645 3.3537(9) 3.3537(9) 3.3537(9) ?
  La2 Ti23 . 1_4545 3.3859(17) 3.3859(17) 3.3859(17) ?
  La2 Fe23 . 1_4545 3.3859(17) 3.3859(17) 3.3859(17) ?
  La2 O1 . 1_5545 2.55(7) 2.55(7) 2.55(7) ?
  La2 O2 . . 2.45(2) 2.45(2) 2.45(2) ?
  La2 O2 . 3_4555 2.49(2) 2.49(2) 2.49(2) ?
  La2 O2 . 6_5545 2.43(2) 2.43(2) 2.43(2) ?
  La2 O2 . 8_5645 2.54(2) 2.54(2) 2.54(2) ?
  La2 O3 . 1_4555 2.40(2) 2.40(2) 2.40(2) ?
  La2 O3 . 6_5545 2.457(19) 2.457(19) 2.457(19) ?
  La2 O11 . 2_5455 3.36(7) 3.36(7) 3.36(7) ?
  La2 O21 . 5_5555 3.221(17) 3.221(17) 3.221(17) ?
  La2 O31 . 5_5555 3.197(17) 3.197(17) 3.197(17) ?
  Ti11 O1 . . 2.00(2) 2.00(2) 2.00(2) ?
  Ti11 O2 . . 1.939(18) 1.939(18) 1.939(18) ?
  Ti11 O2 . 6_5555 2.007(18) 2.007(18) 2.007(18) ?
  Ti11 La11 . 5_5555 3.387(3) 3.387(3) 3.387(3) ?
  Ti11 La11 . 5_5565 3.411(3) 3.411(3) 3.411(3) ?
  Ti11 La11 . 2_5555 3.353(2) 3.353(2) 3.353(2) ?
  Ti11 O11 . 5_5565 1.98(3) 1.98(3) 1.98(3) ?
  Ti11 O21 . 5_5565 1.940(3) 1.940(3) 1.940(3) ?
  Ti11 O21 . 2_5455 2.121(3) 2.121(3) 2.121(3) ?
  Fe11 O1 . . 2.00(2) 2.00(2) 2.00(2) ?
  Fe11 O2 . . 1.939(18) 1.939(18) 1.939(18) ?
  Fe11 O2 . 6_5555 2.007(18) 2.007(18) 2.007(18) ?
  Fe11 La11 . 5_5555 3.387(3) 3.387(3) 3.387(3) ?
  Fe11 La11 . 5_5565 3.411(3) 3.411(3) 3.411(3) ?
  Fe11 La11 . 2_5555 3.353(2) 3.353(2) 3.353(2) ?
  Fe11 O11 . 5_5565 1.98(3) 1.98(3) 1.98(3) ?
  Fe11 O21 . 5_5565 1.940(3) 1.940(3) 1.940(3) ?
  Fe11 O21 . 2_5455 2.121(3) 2.121(3) 2.121(3) ?
  Ti13 O1 . . 1.99(9) 1.99(9) 1.99(9) ?
  Ti13 O2 . . 1.82(2) 1.82(2) 1.82(2) ?
  Ti13 O2 . 6_5555 1.87(2) 1.87(2) 1.87(2) ?
  Ti13 La11 . 2_5455 3.4476(13) 3.4476(13) 3.4476(13) ?
  Ti13 La31 . 5_5565 3.4968(17) 3.4968(17) 3.4968(17) ?
  Ti13 O11 . 5_5565 2.01(9) 2.01(9) 2.01(9) ?
  Ti13 O21 . 5_5565 2.293(17) 2.293(17) 2.293(17) ?
  Ti13 O21 . 2_5455 1.725(17) 1.725(17) 1.725(17) ?
  Fe13 O1 . . 1.99(9) 1.99(9) 1.99(9) ?
  Fe13 O2 . . 1.82(2) 1.82(2) 1.82(2) ?
  Fe13 O2 . 6_5555 1.87(2) 1.87(2) 1.87(2) ?
  Fe13 La11 . 2_5455 3.4476(13) 3.4476(13) 3.4476(13) ?
  Fe13 La31 . 5_5565 3.4968(17) 3.4968(17) 3.4968(17) ?
  Fe13 O11 . 5_5565 2.01(9) 2.01(9) 2.01(9) ?
  Fe13 O21 . 5_5565 2.293(17) 2.293(17) 2.293(17) ?
  Fe13 O21 . 2_5455 1.725(17) 1.725(17) 1.725(17) ?
  Ti21 O1 . 1_6555 1.99(2) 1.99(2) 1.99(2) ?
  Ti21 O3 . . 1.940(17) 1.940(17) 1.940(17) ?
  Ti21 O3 . 6_6555 2.024(18) 2.024(18) 2.024(18) ?
  Ti21 La11 . 5_5555 3.391(3) 3.391(3) 3.391(3) ?
  Ti21 La11 . 5_5565 3.418(3) 3.418(3) 3.418(3) ?
  Ti21 La11 . 2_6455 3.4901(19) 3.4901(19) 3.4901(19) ?
  Ti21 La11 . 2_6555 3.3451(19) 3.3451(19) 3.3451(19) ?
  Ti21 O11 . 5_5565 2.06(3) 2.06(3) 2.06(3) ?
  Ti21 O31 . 5_6565 1.968(3) 1.968(3) 1.968(3) ?
  Ti21 O31 . 2_5455 2.086(3) 2.086(3) 2.086(3) ?
  Fe21 O1 . 1_6555 1.99(2) 1.99(2) 1.99(2) ?
  Fe21 O3 . . 1.940(17) 1.940(17) 1.940(17) ?
  Fe21 O3 . 6_6555 2.024(18) 2.024(18) 2.024(18) ?
  Fe21 La11 . 5_5555 3.391(3) 3.391(3) 3.391(3) ?
  Fe21 La11 . 5_5565 3.418(3) 3.418(3) 3.418(3) ?
  Fe21 La11 . 2_6455 3.4901(19) 3.4901(19) 3.4901(19) ?
  Fe21 La11 . 2_6555 3.3451(19) 3.3451(19) 3.3451(19) ?
  Fe21 O11 . 5_5565 2.06(3) 2.06(3) 2.06(3) ?
  Fe21 O31 . 5_6565 1.968(3) 1.968(3) 1.968(3) ?
  Fe21 O31 . 2_5455 2.086(3) 2.086(3) 2.086(3) ?
  Ti23 O1 . 1_6555 2.01(8) 2.01(8) 2.01(8) ?
  Ti23 O3 . . 1.77(2) 1.77(2) 1.77(2) ?
  Ti23 O3 . 6_6555 1.89(2) 1.89(2) 1.89(2) ?
  Ti23 La11 . 2_6455 3.4885(13) 3.4885(13) 3.4885(13) ?
  Ti23 La31 . 5_5565 3.4641(17) 3.4641(17) 3.4641(17) ?
  Ti23 O11 . 5_5565 2.00(9) 2.00(9) 2.00(9) ?
  Ti23 O31 . 5_6565 2.299(17) 2.299(17) 2.299(17) ?
  Ti23 O31 . 2_5455 1.826(17) 1.826(17) 1.826(17) ?
  Fe23 O1 . 1_6555 2.01(8) 2.01(8) 2.01(8) ?
  Fe23 O3 . . 1.77(2) 1.77(2) 1.77(2) ?
  Fe23 O3 . 6_6555 1.89(2) 1.89(2) 1.89(2) ?
  Fe23 La11 . 2_6455 3.4885(13) 3.4885(13) 3.4885(13) ?
  Fe23 La31 . 5_5565 3.4641(17) 3.4641(17) 3.4641(17) ?
  Fe23 O11 . 5_5565 2.00(9) 2.00(9) 2.00(9) ?
  Fe23 O31 . 5_6565 2.299(17) 2.299(17) 2.299(17) ?
  Fe23 O31 . 2_5455 1.826(17) 1.826(17) 1.826(17) ?
  O1 O2 . . 2.83(6) 2.75(8) 2.95(8) ?
  O1 O2 . 6_5555 2.77(6) 2.76(8) 2.80(3) ?
  O1 O3 . 1_4555 2.82(6) 2.73(8) 2.91(8) ?
  O1 O3 . 6_5555 2.79(6) 2.75(8) 2.81(3) ?
  O1 La11 . 2_5455 2.79(4) 2.61(7) 2.96(2) ?
  O1 La11 . 2_5555 2.59(4) 2.47(7) 2.71(2) ?
  O1 Ti121 . 5_5565 2.05(9) 2.05(9) 2.05(9) ?
  O1 Fe121 . 5_5565 2.05(9) 2.05(9) 2.05(9) ?
  O1 Ti221 . 5_5565 1.99(9) 1.99(9) 1.99(9) ?
  O1 Fe221 . 5_5565 1.99(9) 1.99(9) 1.99(9) ?
  O1 O11 . 2_5465 3.57(8) 2.61(10) 4.07(10) ?
  O1 O11 . 2_5565 3.43(7) 3.13(7) 3.73(7) ?
  O1 O21 . 5_5565 2.82(6) 2.65(8) 3.07(8) ?
  O1 O21 . 2_5455 2.79(6) 2.41(8) 3.02(8) ?
  O1 O31 . 5_5565 2.81(6) 2.68(8) 3.04(8) ?
  O1 O31 . 2_4455 2.79(6) 2.42(8) 2.99(8) ?
  O2 O2 . 3_4555 2.84(3) 2.84(3) 2.84(3) ?
  O2 O2 . 7_5455 2.84(3) 2.84(3) 2.84(3) ?
  O2 O2 . 6_5545 2.82(3) 2.74(3) 2.87(2) ?
  O2 O2 . 6_5555 2.82(3) 2.74(3) 2.87(2) ?
  O2 O3 . 1_4555 3.56(3) 3.41(2) 3.71(3) ?
  O2 O3 . 3_4555 2.92(3) 2.92(3) 2.92(3) ?
  O2 O3 . 7_4455 2.76(3) 2.76(3) 2.76(3) ?
  O2 La11 . 5_5555 2.765(18) 2.741(18) 2.789(18) ?
  O2 La11 . 2_5555 2.749(18) 2.716(18) 2.782(18) ?
  O2 La31 . 5_5555 2.50(2) 2.50(2) 2.50(2) ?
  O2 La31 . 2_5555 2.44(2) 2.44(2) 2.44(2) ?
  O2 Ti121 . 5_5565 2.022(18) 2.022(18) 2.022(18) ?
  O2 Ti121 . 2_5555 2.164(18) 2.164(18) 2.164(18) ?
  O2 Fe121 . 5_5565 2.022(18) 2.022(18) 2.022(18) ?
  O2 Fe121 . 2_5555 2.164(18) 2.164(18) 2.164(18) ?
  O2 O11 . 5_5565 2.84(6) 2.72(3) 2.97(8) ?
  O2 O11 . 2_5555 2.77(6) 2.40(8) 3.49(8) ?
  O2 O21 . 5_5555 3.36(2) 3.272(18) 3.52(2) ?
  O2 O21 . 2_5455 2.78(2) 2.64(3) 2.947(19) ?
  O2 O21 . 2_5555 2.78(2) 2.595(18) 2.98(3) ?
  O3 O3 . 3_4555 2.85(3) 2.85(3) 2.85(3) ?
  O3 O3 . 7_5455 2.85(3) 2.85(3) 2.85(3) ?
  O3 O3 . 6_6545 2.84(3) 2.73(3) 2.92(3) ?
  O3 O3 . 6_6555 2.84(3) 2.73(3) 2.92(3) ?
  O3 La11 . 5_5555 2.755(17) 2.726(17) 2.784(18) ?
  O3 La11 . 2_6555 2.757(18) 2.722(18) 2.793(17) ?
  O3 La31 . 3_5455 2.52(2) 2.52(2) 2.52(2) ?
  O3 La31 . 5_5555 2.46(2) 2.46(2) 2.46(2) ?
  O3 La31 . 2_6555 2.474(19) 2.474(19) 2.474(19) ?
  O3 La31 . 4_5655 3.04(2) 3.04(2) 3.04(2) ?
  O3 Ti221 . 5_6565 2.027(19) 2.027(19) 2.027(19) ?
  O3 Ti221 . 2_5555 2.179(17) 2.179(17) 2.179(17) ?
  O3 Fe221 . 5_6565 2.027(19) 2.027(19) 2.027(19) ?
  O3 Fe221 . 2_5555 2.179(17) 2.179(17) 2.179(17) ?
  O3 O11 . 3_5465 3.40(7) 3.40(7) 3.40(7) ?
  O3 O11 . 5_5565 2.86(6) 2.77(3) 2.96(8) ?
  O3 O11 . 2_6555 2.79(6) 2.43(8) 3.49(8) ?
  O3 O11 . 4_5655 3.47(7) 3.47(7) 3.47(7) ?
  O3 O31 . 5_6555 3.26(2) 3.13(3) 3.41(2) ?
  O3 O31 . 2_5455 2.80(2) 2.66(3) 2.932(17) ?
  O3 O31 . 2_5555 2.79(2) 2.635(19) 2.90(2) ?
  La11 Ti121 . . 3.418(3) 3.418(3) 3.418(3) ?
  La11 Ti121 . 1_5565 3.366(3) 3.366(3) 3.366(3) ?
  La11 Ti121 . 6_4555 3.421(3) 3.421(3) 3.421(3) ?
  La11 Fe121 . . 3.418(3) 3.418(3) 3.418(3) ?
  La11 Fe121 . 1_5565 3.366(3) 3.366(3) 3.366(3) ?
  La11 Fe121 . 6_4555 3.421(3) 3.421(3) 3.421(3) ?
  La11 Ti221 . 1_6555 3.439(3) 3.439(3) 3.439(3) ?
  La11 Ti221 . 1_6565 3.401(3) 3.401(3) 3.401(3) ?
  La11 Ti221 . 6_4555 3.406(3) 3.406(3) 3.406(3) ?
  La11 Fe221 . 1_6555 3.439(3) 3.439(3) 3.439(3) ?
  La11 Fe221 . 1_6565 3.401(3) 3.401(3) 3.401(3) ?
  La11 Fe221 . 6_4555 3.406(3) 3.406(3) 3.406(3) ?
  La11 O11 . . 3.27(5) 2.88(2) 3.65(7) ?
  La11 O11 . 1_5565 2.40(5) 2.09(7) 2.72(2) ?
  La11 O21 . . 2.389(10) 2.376(2) 2.402(17) ?
  La11 O21 . 6_4455 3.132(10) 2.964(17) 3.300(2) ?
  La11 O31 . 1_6555 2.358(10) 2.318(17) 2.398(2) ?
  La11 O31 . 6_4455 3.164(10) 3.056(17) 3.272(2) ?
  La31 O11 . . 2.54(7) 2.54(7) 2.54(7) ?
  La31 O11 . 1_5565 3.16(7) 3.16(7) 3.16(7) ?
  La31 O21 . . 3.089(17) 3.089(17) 3.089(17) ?
  La31 O31 . 1_6555 2.964(17) 2.964(17) 2.964(17) ?
  Ti121 O11 . . 2.16(8) 2.16(8) 2.16(8) ?
  Ti121 O21 . . 2.129(17) 2.129(17) 2.129(17) ?
  Ti121 O21 . 6_4445 1.737(17) 1.737(17) 1.737(17) ?
  Fe121 O11 . . 2.16(8) 2.16(8) 2.16(8) ?
  Fe121 O21 . . 2.129(17) 2.129(17) 2.129(17) ?
  Fe121 O21 . 6_4445 1.737(17) 1.737(17) 1.737(17) ?
  Ti221 O11 . 1_4555 2.19(8) 2.19(8) 2.19(8) ?
  Ti221 O31 . . 2.098(17) 2.098(17) 2.098(17) ?
  Ti221 O31 . 6_3445 1.769(17) 1.769(17) 1.769(17) ?
  Fe221 O11 . 1_4555 2.19(8) 2.19(8) 2.19(8) ?
  Fe221 O31 . . 2.098(17) 2.098(17) 2.098(17) ?
  Fe221 O31 . 6_3445 1.769(17) 1.769(17) 1.769(17) ?
  O11 O21 . . 2.96(6) 2.83(2) 3.08(8) ?
  O11 O21 . 6_4445 2.82(6) 2.12(9) 3.29(2) ?
  O11 O31 . 1_6545 4.20(6) 3.47(8) 4.62(8) ?
  O11 O31 . 1_6555 2.97(6) 2.91(8) 3.07(8) ?
  O11 O31 . 6_4445 2.86(6) 2.20(9) 3.28(2) ?
  O21 O21 . 6_4445 2.832(17) 2.76(2) 2.908(3) ?
  O21 O21 . 6_4455 2.832(17) 2.76(2) 2.908(3) ?
  O21 O31 . 1_6555 3.567(17) 3.27(2) 3.93(2) ?
  O31 O31 . 6_3445 2.841(17) 2.77(2) 2.888(3) ?
  O31 O31 . 6_3455 2.841(17) 2.77(2) 2.888(3) ?

#=======================================================================
data_n6_350K
#=======================================================================

# 5. CHEMICAL DATA

_chemical_name_systematic
?
_chemical_name_common                    ?
_chemical_formula_moiety                 ?
_chemical_formula_structural             ?
_chemical_formula_analytical             ?
_chemical_formula_iupac                  ?
_chemical_formula_sum                    'Fe0.571 La3.429 O11.429 Ti2.858'
_chemical_formula_weight                 827.9
_chemical_melting_point                  ?
_chemical_compound_source                ?
_chemical_absolute_configuration         .

#=======================================================================

# 6. CRYSTAL DATA

_symmetry_cell_setting                   monoclinic
_space_group_ssg_name                    'X21/b(\a\b0)00'
loop_
 _space_group_symop_ssg_id
 _space_group_symop_ssg_operation_algebraic
 1   x1,x2,x3,x4
 2   -x1+1/4,-x2,x3+1/2,-x4+1/4
 3   -x1,-x2,-x3,-x4+1/2
 4   x1,x2+1/2,-x3+1/2,x4
 5   x1+3/4,x2+1/2,x3,x4+1/4
 6   -x1,-x2+1/2,x3+1/2,-x4+1/2
 7   -x1+3/4,-x2+1/2,-x3,-x4+3/4
 8   x1+3/4,x2,-x3+1/2,x4+1/4
 9   x1+1/2,x2,x3,x4+1/2
 10  -x1+3/4,-x2,x3+1/2,-x4+3/4
 11  -x1+1/2,-x2,-x3,-x4
 12  x1+1/2,x2+1/2,-x3+1/2,x4+1/2
 13  x1+1/4,x2+1/2,x3,x4+3/4
 14  -x1+1/2,-x2+1/2,x3+1/2,-x4
 15  -x1+1/4,-x2+1/2,-x3,-x4+1/4
 16  x1+1/4,x2,-x3+1/2,x4+3/4
_cell_length_a                           7.8379(18)
_cell_length_b                           5.2768(13)
_cell_length_c                           5.5545(14)
_cell_angle_alpha                        90
_cell_angle_beta                         90
_cell_angle_gamma                        89.996(17)
_cell_volume                             229.73(10)

loop_
 _jana_cell_twin_matrix_id
 _jana_cell_twin_volume_fraction
 _jana_cell_twin_matrix_1_1
 _jana_cell_twin_matrix_1_2
 _jana_cell_twin_matrix_1_3
 _jana_cell_twin_matrix_2_1
 _jana_cell_twin_matrix_2_2
 _jana_cell_twin_matrix_2_3
 _jana_cell_twin_matrix_3_1
 _jana_cell_twin_matrix_3_2
 _jana_cell_twin_matrix_3_3
1 0.5908(10)
1 0 0
0 1 0
0 0 1
2 0.4092(10)
1 0 0
0 -1 0
0 0 -1

_cell_modulation_dimension               1
loop_
 _cell_wave_vector_seq_id
 _cell_wave_vector_x
 _cell_wave_vector_y
 _cell_wave_vector_z
 1  0.000000  0.071429  0.000000

_jana_cell_commen_supercell_matrix_1_1   1
_jana_cell_commen_supercell_matrix_1_2   0
_jana_cell_commen_supercell_matrix_1_3   0
_jana_cell_commen_supercell_matrix_2_1   0
_jana_cell_commen_supercell_matrix_2_2   14
_jana_cell_commen_supercell_matrix_2_3   0
_jana_cell_commen_supercell_matrix_3_1   0
_jana_cell_commen_supercell_matrix_3_2   0
_jana_cell_commen_supercell_matrix_3_3   1

_jana_cell_commen_t_section_1            0.018

_cell_formula_units_Z                    1

_cell_measurement_reflns_used            0
_cell_measurement_theta_min              ?
_cell_measurement_theta_max              ?
_cell_measurement_temperature            350
_cell_special_details
?

_exptl_crystal_density_diffrn            5.9823
_exptl_crystal_density_meas              ?
_exptl_crystal_density_method            ?
_exptl_crystal_F_000                     367

_exptl_absorpt_coefficient_mu            18.866
_exptl_crystal_description               'thick plate'
_exptl_crystal_size_max                  0.12
_exptl_crystal_size_mid                  0.08
_exptl_crystal_size_min                  0.005
_exptl_crystal_size_rad                  ?
_exptl_crystal_colour                    'metallic gray'
_exptl_absorpt_correction_type           numerical
_exptl_absorpt_process_details           'SADABS (version 2008/1)'
_exptl_absorpt_correction_T_min          0.3487
_exptl_absorpt_correction_T_max          0.7477

#=======================================================================

# 7. EXPERIMENTAL DATA

_exptl_special_details                   ?

_diffrn_ambient_temperature              350
_diffrn_source                           ?
_diffrn_source_power                     4.125
_diffrn_source_voltage                   55
_diffrn_source_current                   75
_diffrn_radiation_type                   'Mo K\a'
_diffrn_radiation_source                 'rotating anode X-ray tube'
_diffrn_radiation_wavelength             0.71069
_diffrn_radiation_monochromator          graphite
_diffrn_measurement_device               'Image-Plate diffractometer'
_diffrn_measurement_device_type          'Marresearch Mar345dtb'
_diffrn_detector                         'Marresearch Mar345'
_diffrn_detector_area_resol_mean         ?
_diffrn_measurement_method               'Rotating, \f scans'
_diffrn_measurement_specimen_support     ?

_diffrn_reflns_number                    56062
_diffrn_reflns_theta_min                 2.21
_diffrn_reflns_theta_max                 39.36
_diffrn_reflns_theta_full                32.94
_diffrn_measured_fraction_theta_max      0.87
_diffrn_measured_fraction_theta_full     0.98
_diffrn_reflns_av_R_equivalents          0.048
_diffrn_reflns_av_sigmaI/netI            0.0371
_diffrn_reflns_limit_h_min               -13
_diffrn_reflns_limit_h_max               13
_diffrn_reflns_limit_k_min               -9
_diffrn_reflns_limit_k_max               9
_diffrn_reflns_limit_l_min               -8
_diffrn_reflns_limit_l_max               8
_diffrn_reflns_limit_index_m_1_min       -7
_diffrn_reflns_limit_index_m_1_max       7
_diffrn_reflns_reduction_process         ?

_diffrn_standards_number                 ?
_diffrn_standards_interval_count         ?
_diffrn_standards_interval_time          ?
_diffrn_standards_decay_%                ?
loop_
_diffrn_standard_refln_index_h
_diffrn_standard_refln_index_k
_diffrn_standard_refln_index_l
  ? ? ?

_diffrn_radiation_probe                  x-ray

#=======================================================================

# 8. REFINEMENT DATA

_refine_special_details
?

_reflns_number_total                     12281
_reflns_number_gt                        11137
_reflns_threshold_expression             'I>3\s(I)'

_refine_ls_structure_factor_coef         F
_refine_ls_R_factor_gt                   0.0619
_refine_ls_wR_factor_gt                  0.0811
_refine_ls_R_factor_all                  0.0683
_refine_ls_wR_factor_ref                 0.0819
_refine_ls_goodness_of_fit_ref           3.09
_refine_ls_goodness_of_fit_gt            3.21
_refine_ls_restrained_S_gt               ?
_refine_ls_restrained_S_all              ?
_refine_ls_number_reflns                 12281
_refine_ls_number_parameters             161
_refine_ls_number_restraints             0
_refine_ls_number_constraints            8
_refine_ls_weighting_scheme              sigma
_refine_ls_weighting_details             'w=1/(\s^2^(F)+0.0001F^2^)'
_refine_ls_hydrogen_treatment            ?
_refine_ls_shift/su_max                  0.0058
_refine_ls_shift/su_mean                 0.0006
_refine_diff_density_max                 18.03
_refine_diff_density_min                 -4.21
_refine_ls_extinction_method             'none'
_refine_ls_extinction_coef               ?
_refine_ls_abs_structure_details         ?
_refine_ls_abs_structure_Flack           ?
_refine_ls_abs_structure_Rogers          ?

loop_
 _atom_type_symbol
 _atom_type_scat_dispersion_real
 _atom_type_scat_dispersion_imag
 _atom_type_scat_source
 Fe  0.3463  0.8444
 'International Tables Vol C tables 4.2.6.8 and 6.1.1.1'
 La -0.2871  2.4523
 'International Tables Vol C tables 4.2.6.8 and 6.1.1.1'
 O   0.0106  0.0060
 'International Tables Vol C tables 4.2.6.8 and 6.1.1.1'
 Ti  0.2776  0.4457
 'International Tables Vol C tables 4.2.6.8 and 6.1.1.1'

_computing_data_collection               ?
_computing_cell_refinement               ?
_computing_data_reduction                ?
_computing_structure_solution            ?
_computing_structure_refinement          ?
_computing_molecular_graphics            ?
_computing_publication_material          ?

#=======================================================================

# 9. ATOMIC COORDINATES AND DISPLACEMENT PARAMETERS

loop_
 _atom_site_label
 _atom_site_type_symbol
 _atom_site_fract_x
 _atom_site_fract_y
 _atom_site_fract_z
 _atom_site_adp_type
 _atom_site_U_iso_or_equiv
 _atom_site_symmetry_multiplicity
 _atom_site_occupancy
 _atom_site_calc_flag
 _atom_site_refinement_flags
 _atom_site_disorder_assembly
 _atom_site_disorder_group
  La1 La -0.00020(2) -0.01692(4) 0.00249(3) Uani 0.00860(6) 16 0.1429 d . . .
  La2 La -0.00162(10) 0.29549(9) -0.08944(14) Uani 0.00917(9) 16 0.0357 d . . .
  La3 La -0.00230(11) -0.23433(11) 0.05049(14) Uani 0.01581(13) 16 0.0357 d . .
 .
  Ti11 Ti 0.25 0 0.5 Uani 0.00596(18) 8 0.022(2) d . . .
  Fe11 Fe 0.25 0 0.5 Uani 0.00596(18) 8 0.049(2) d . . .
  Ti12 Ti 0.25 0 0.5 Uani 0.00596(18) 16 0.0280(10) d . . .
  Fe12 Fe 0.25 0 0.5 Uani 0.00596(18) 16 0.0078(10) d . . .
  Ti13 Ti 0.25 0 0.5 Uani 0.00596(18) 16 0.0355(9) d . . .
  Fe13 Fe 0.25 0 0.5 Uani 0.00596(18) 16 0.0002(9) d . . .
  Ti21 Ti 0.75 0 0.5 Uani 0.00583(18) 8 0.022(2) d . . .
  Fe21 Fe 0.75 0 0.5 Uani 0.00583(18) 8 0.049(2) d . . .
  Ti22 Ti 0.75 0 0.5 Uani 0.00583(18) 16 0.0277(10) d . . .
  Fe22 Fe 0.75 0 0.5 Uani 0.00583(18) 16 0.0080(10) d . . .
  Ti23 Ti 0.75 0 0.5 Uani 0.00583(18) 16 0.0341(9) d . . .
  Fe23 Fe 0.75 0 0.5 Uani 0.00583(18) 16 0.0016(9) d . . .
  O1 O -0.0005(3) 0.0064(4) 0.5558(5) Uani 0.0112(5) 16 0.2143 d . . .
  O2 O 0.2259(3) 0.2154(4) 0.2099(4) Uani 0.0103(5) 16 0.25 d . . .
  O3 O 0.7756(3) 0.2090(4) 0.2061(4) Uani 0.0098(5) 16 0.25 d . . .

loop_
 _atom_site_aniso_label
 _atom_site_aniso_type_symbol
 _atom_site_aniso_U_11
 _atom_site_aniso_U_22
 _atom_site_aniso_U_33
 _atom_site_aniso_U_12
 _atom_site_aniso_U_13
 _atom_site_aniso_U_23
 La1 La 0.00496(10) 0.01339(8) 0.00745(13) 0.00006(9) -0.00025(13) -0.00182(7)
 La2 La 0.00357(13) 0.01779(15) 0.00616(19) -0.00013(18) -0.00067(17)
 -0.00226(14)
 La3 La 0.00384(15) 0.0290(2) 0.0145(3) -0.0001(2) -0.0002(2) -0.00762(18)
 Ti11 Ti 0.0044(3) 0.0095(2) 0.0040(4) -0.0021(5) -0.0001(4) 0.00011(19)
 Fe11 Fe 0.0044(3) 0.0095(2) 0.0040(4) -0.0021(5) -0.0001(4) 0.00011(19)
 Ti12 Ti 0.0044(3) 0.0095(2) 0.0040(4) -0.0021(5) -0.0001(4) 0.00011(19)
 Fe12 Fe 0.0044(3) 0.0095(2) 0.0040(4) -0.0021(5) -0.0001(4) 0.00011(19)
 Ti13 Ti 0.0044(3) 0.0095(2) 0.0040(4) -0.0021(5) -0.0001(4) 0.00011(19)
 Fe13 Fe 0.0044(3) 0.0095(2) 0.0040(4) -0.0021(5) -0.0001(4) 0.00011(19)
 Ti21 Ti 0.0043(3) 0.0093(2) 0.0039(4) -0.0022(5) 0.0001(4) 0.00073(19)
 Fe21 Fe 0.0043(3) 0.0093(2) 0.0039(4) -0.0022(5) 0.0001(4) 0.00073(19)
 Ti22 Ti 0.0043(3) 0.0093(2) 0.0039(4) -0.0022(5) 0.0001(4) 0.00073(19)
 Fe22 Fe 0.0043(3) 0.0093(2) 0.0039(4) -0.0022(5) 0.0001(4) 0.00073(19)
 Ti23 Ti 0.0043(3) 0.0093(2) 0.0039(4) -0.0022(5) 0.0001(4) 0.00073(19)
 Fe23 Fe 0.0043(3) 0.0093(2) 0.0039(4) -0.0022(5) 0.0001(4) 0.00073(19)
 O1 O 0.0014(8) 0.0201(9) 0.0122(11) 0.0005(8) -0.0001(6) 0.0000(7)
 O2 O 0.0109(11) 0.0158(8) 0.0043(9) -0.0003(7) 0.0007(7) 0.0024(6)
 O3 O 0.0090(10) 0.0156(8) 0.0049(9) 0.0001(6) 0.0012(6) 0.0030(6)


loop_
 _atom_site_Fourier_wave_vector_seq_id
 _jana_atom_site_Fourier_wave_vector_q1_coeff
    1    1
    2    2
    3    3
    4    4
    5    5
    6    6
    7    7
    8    8
    9    9
   10   10
   11   11
   12   12

loop_
 _jana_atom_site_crenel_ortho_func_id
 _jana_atom_site_crenel_ortho_func_c
 _jana_atom_site_crenel_ortho_func_w
 _jana_atom_site_crenel_ortho_func_eps
 1  0.000000  0.142857  0.950000
 2  0.110398  0.035714  0.950000
 3 -0.106031  0.035714  0.950000
 4  0.000000  0.214286  0.950000
 5  0.000000  0.250000  0.950000
 6  0.000000  0.250000  0.950000

loop_
 _atom_site_occ_special_func_atom_site_label
 _atom_site_occ_special_func_crenel_c
 _atom_site_occ_special_func_crenel_w
 La1  0  0.1429
 La2  0.110398(6)  0.0357
 La3 -0.106031(8)  0.0357
 Ti11  0  0.0714
 Fe11  0  0.0714
 Ti12  0.0536  0.0357
 Fe12  0.0536  0.0357
 Ti13  0.0893  0.0357
 Fe13  0.0893  0.0357
 Ti21  0  0.0714
 Fe21  0  0.0714
 Ti22  0.0536  0.0357
 Fe22  0.0536  0.0357
 Ti23  0.0893  0.0357
 Fe23  0.0893  0.0357
 O1  0  0.2143
 O2  0  0.25
 O3  0  0.25

loop_
 _atom_site_displace_Fourier_atom_site_label
 _atom_site_displace_Fourier_axis
 _atom_site_displace_Fourier_wave_vector_seq_id
 _atom_site_displace_Fourier_param_cos
 _atom_site_displace_Fourier_param_sin
 Ti11  x  1     0               -0.0070(7)
 Ti11  y  1     0                0.1431(4)
 Ti11  z  1     0               -0.0612(5)
 Ti11  x  2     0                0
 Ti11  y  2     0                0
 Ti11  z  2     0                0
 Ti11  x  3     0                0
 Ti11  y  3     0                0
 Ti11  z  3     0                0
 Ti11  x  4     0                0
 Ti11  y  4     0                0
 Ti11  z  4     0                0
 Ti11  x  5     0                0
 Ti11  y  5     0                0
 Ti11  z  5     0                0
 Ti11  x  6     0                0.0007(4)
 Ti11  y  6     0                0.01125(19)
 Ti11  z  6     0                0.0226(2)
 Ti11  x  7     0                0
 Ti11  y  7     0                0
 Ti11  z  7     0                0
 Ti11  x  8     0                0
 Ti11  y  8     0                0
 Ti11  z  8     0                0
 Ti11  x  9     0                0
 Ti11  y  9     0                0
 Ti11  z  9     0                0
 Ti11  x 10     0                0
 Ti11  y 10     0                0
 Ti11  z 10     0                0
 Ti11  x 11     0                0
 Ti11  y 11     0                0
 Ti11  z 11     0                0
 Ti11  x 12     0                0.0011(2)
 Ti11  y 12     0               -0.00793(14)
 Ti11  z 12     0               -0.0114(3)
 Fe11  x  1     0               -0.0070(7)
 Fe11  y  1     0                0.1431(4)
 Fe11  z  1     0               -0.0612(5)
 Fe11  x  2     0                0
 Fe11  y  2     0                0
 Fe11  z  2     0                0
 Fe11  x  3     0                0
 Fe11  y  3     0                0
 Fe11  z  3     0                0
 Fe11  x  4     0                0
 Fe11  y  4     0                0
 Fe11  z  4     0                0
 Fe11  x  5     0                0
 Fe11  y  5     0                0
 Fe11  z  5     0                0
 Fe11  x  6     0                0.0007(4)
 Fe11  y  6     0                0.01125(19)
 Fe11  z  6     0                0.0226(2)
 Fe11  x  7     0                0
 Fe11  y  7     0                0
 Fe11  z  7     0                0
 Fe11  x  8     0                0
 Fe11  y  8     0                0
 Fe11  z  8     0                0
 Fe11  x  9     0                0
 Fe11  y  9     0                0
 Fe11  z  9     0                0
 Fe11  x 10     0                0
 Fe11  y 10     0                0
 Fe11  z 10     0                0
 Fe11  x 11     0                0
 Fe11  y 11     0                0
 Fe11  z 11     0                0
 Fe11  x 12     0                0.0011(2)
 Fe11  y 12     0               -0.00793(14)
 Fe11  z 12     0               -0.0114(3)
 Ti12  x  1     0               -0.0070(7)
 Ti12  y  1     0                0.1431(4)
 Ti12  z  1     0               -0.0612(5)
 Ti12  x  2     0                0
 Ti12  y  2     0                0
 Ti12  z  2     0                0
 Ti12  x  3     0                0
 Ti12  y  3     0                0
 Ti12  z  3     0                0
 Ti12  x  4     0                0
 Ti12  y  4     0                0
 Ti12  z  4     0                0
 Ti12  x  5     0                0
 Ti12  y  5     0                0
 Ti12  z  5     0                0
 Ti12  x  6     0                0.0007(4)
 Ti12  y  6     0                0.01125(19)
 Ti12  z  6     0                0.0226(2)
 Ti12  x  7     0                0
 Ti12  y  7     0                0
 Ti12  z  7     0                0
 Ti12  x  8     0                0
 Ti12  y  8     0                0
 Ti12  z  8     0                0
 Ti12  x  9     0                0
 Ti12  y  9     0                0
 Ti12  z  9     0                0
 Ti12  x 10     0                0
 Ti12  y 10     0                0
 Ti12  z 10     0                0
 Ti12  x 11     0                0
 Ti12  y 11     0                0
 Ti12  z 11     0                0
 Ti12  x 12     0                0.0011(2)
 Ti12  y 12     0               -0.00793(14)
 Ti12  z 12     0               -0.0114(3)
 Fe12  x  1     0               -0.0070(7)
 Fe12  y  1     0                0.1431(4)
 Fe12  z  1     0               -0.0612(5)
 Fe12  x  2     0                0
 Fe12  y  2     0                0
 Fe12  z  2     0                0
 Fe12  x  3     0                0
 Fe12  y  3     0                0
 Fe12  z  3     0                0
 Fe12  x  4     0                0
 Fe12  y  4     0                0
 Fe12  z  4     0                0
 Fe12  x  5     0                0
 Fe12  y  5     0                0
 Fe12  z  5     0                0
 Fe12  x  6     0                0.0007(4)
 Fe12  y  6     0                0.01125(19)
 Fe12  z  6     0                0.0226(2)
 Fe12  x  7     0                0
 Fe12  y  7     0                0
 Fe12  z  7     0                0
 Fe12  x  8     0                0
 Fe12  y  8     0                0
 Fe12  z  8     0                0
 Fe12  x  9     0                0
 Fe12  y  9     0                0
 Fe12  z  9     0                0
 Fe12  x 10     0                0
 Fe12  y 10     0                0
 Fe12  z 10     0                0
 Fe12  x 11     0                0
 Fe12  y 11     0                0
 Fe12  z 11     0                0
 Fe12  x 12     0                0.0011(2)
 Fe12  y 12     0               -0.00793(14)
 Fe12  z 12     0               -0.0114(3)
 Ti13  x  1     0               -0.0070(7)
 Ti13  y  1     0                0.1431(4)
 Ti13  z  1     0               -0.0612(5)
 Ti13  x  2     0                0
 Ti13  y  2     0                0
 Ti13  z  2     0                0
 Ti13  x  3     0                0
 Ti13  y  3     0                0
 Ti13  z  3     0                0
 Ti13  x  4     0                0
 Ti13  y  4     0                0
 Ti13  z  4     0                0
 Ti13  x  5     0                0
 Ti13  y  5     0                0
 Ti13  z  5     0                0
 Ti13  x  6     0                0.0007(4)
 Ti13  y  6     0                0.01125(19)
 Ti13  z  6     0                0.0226(2)
 Ti13  x  7     0                0
 Ti13  y  7     0                0
 Ti13  z  7     0                0
 Ti13  x  8     0                0
 Ti13  y  8     0                0
 Ti13  z  8     0                0
 Ti13  x  9     0                0
 Ti13  y  9     0                0
 Ti13  z  9     0                0
 Ti13  x 10     0                0
 Ti13  y 10     0                0
 Ti13  z 10     0                0
 Ti13  x 11     0                0
 Ti13  y 11     0                0
 Ti13  z 11     0                0
 Ti13  x 12     0                0.0011(2)
 Ti13  y 12     0               -0.00793(14)
 Ti13  z 12     0               -0.0114(3)
 Fe13  x  1     0               -0.0070(7)
 Fe13  y  1     0                0.1431(4)
 Fe13  z  1     0               -0.0612(5)
 Fe13  x  2     0                0
 Fe13  y  2     0                0
 Fe13  z  2     0                0
 Fe13  x  3     0                0
 Fe13  y  3     0                0
 Fe13  z  3     0                0
 Fe13  x  4     0                0
 Fe13  y  4     0                0
 Fe13  z  4     0                0
 Fe13  x  5     0                0
 Fe13  y  5     0                0
 Fe13  z  5     0                0
 Fe13  x  6     0                0.0007(4)
 Fe13  y  6     0                0.01125(19)
 Fe13  z  6     0                0.0226(2)
 Fe13  x  7     0                0
 Fe13  y  7     0                0
 Fe13  z  7     0                0
 Fe13  x  8     0                0
 Fe13  y  8     0                0
 Fe13  z  8     0                0
 Fe13  x  9     0                0
 Fe13  y  9     0                0
 Fe13  z  9     0                0
 Fe13  x 10     0                0
 Fe13  y 10     0                0
 Fe13  z 10     0                0
 Fe13  x 11     0                0
 Fe13  y 11     0                0
 Fe13  z 11     0                0
 Fe13  x 12     0                0.0011(2)
 Fe13  y 12     0               -0.00793(14)
 Fe13  z 12     0               -0.0114(3)
 Ti21  x  1     0               -0.0021(7)
 Ti21  y  1     0                0.1559(4)
 Ti21  z  1     0               -0.0646(5)
 Ti21  x  2     0                0
 Ti21  y  2     0                0
 Ti21  z  2     0                0
 Ti21  x  3     0                0
 Ti21  y  3     0                0
 Ti21  z  3     0                0
 Ti21  x  4     0                0
 Ti21  y  4     0                0
 Ti21  z  4     0                0
 Ti21  x  5     0                0
 Ti21  y  5     0                0
 Ti21  z  5     0                0
 Ti21  x  6     0               -0.0013(3)
 Ti21  y  6     0                0.01001(19)
 Ti21  z  6     0                0.0224(2)
 Ti21  x  7     0                0
 Ti21  y  7     0                0
 Ti21  z  7     0                0
 Ti21  x  8     0                0
 Ti21  y  8     0                0
 Ti21  z  8     0                0
 Ti21  x  9     0                0
 Ti21  y  9     0                0
 Ti21  z  9     0                0
 Ti21  x 10     0                0
 Ti21  y 10     0                0
 Ti21  z 10     0                0
 Ti21  x 11     0                0
 Ti21  y 11     0                0
 Ti21  z 11     0                0
 Ti21  x 12     0                0.0030(2)
 Ti21  y 12     0               -0.00857(14)
 Ti21  z 12     0               -0.0114(3)
 Fe21  x  1     0               -0.0021(7)
 Fe21  y  1     0                0.1559(4)
 Fe21  z  1     0               -0.0646(5)
 Fe21  x  2     0                0
 Fe21  y  2     0                0
 Fe21  z  2     0                0
 Fe21  x  3     0                0
 Fe21  y  3     0                0
 Fe21  z  3     0                0
 Fe21  x  4     0                0
 Fe21  y  4     0                0
 Fe21  z  4     0                0
 Fe21  x  5     0                0
 Fe21  y  5     0                0
 Fe21  z  5     0                0
 Fe21  x  6     0               -0.0013(3)
 Fe21  y  6     0                0.01001(19)
 Fe21  z  6     0                0.0224(2)
 Fe21  x  7     0                0
 Fe21  y  7     0                0
 Fe21  z  7     0                0
 Fe21  x  8     0                0
 Fe21  y  8     0                0
 Fe21  z  8     0                0
 Fe21  x  9     0                0
 Fe21  y  9     0                0
 Fe21  z  9     0                0
 Fe21  x 10     0                0
 Fe21  y 10     0                0
 Fe21  z 10     0                0
 Fe21  x 11     0                0
 Fe21  y 11     0                0
 Fe21  z 11     0                0
 Fe21  x 12     0                0.0030(2)
 Fe21  y 12     0               -0.00857(14)
 Fe21  z 12     0               -0.0114(3)
 Ti22  x  1     0               -0.0021(7)
 Ti22  y  1     0                0.1559(4)
 Ti22  z  1     0               -0.0646(5)
 Ti22  x  2     0                0
 Ti22  y  2     0                0
 Ti22  z  2     0                0
 Ti22  x  3     0                0
 Ti22  y  3     0                0
 Ti22  z  3     0                0
 Ti22  x  4     0                0
 Ti22  y  4     0                0
 Ti22  z  4     0                0
 Ti22  x  5     0                0
 Ti22  y  5     0                0
 Ti22  z  5     0                0
 Ti22  x  6     0               -0.0013(3)
 Ti22  y  6     0                0.01001(19)
 Ti22  z  6     0                0.0224(2)
 Ti22  x  7     0                0
 Ti22  y  7     0                0
 Ti22  z  7     0                0
 Ti22  x  8     0                0
 Ti22  y  8     0                0
 Ti22  z  8     0                0
 Ti22  x  9     0                0
 Ti22  y  9     0                0
 Ti22  z  9     0                0
 Ti22  x 10     0                0
 Ti22  y 10     0                0
 Ti22  z 10     0                0
 Ti22  x 11     0                0
 Ti22  y 11     0                0
 Ti22  z 11     0                0
 Ti22  x 12     0                0.0030(2)
 Ti22  y 12     0               -0.00857(14)
 Ti22  z 12     0               -0.0114(3)
 Fe22  x  1     0               -0.0021(7)
 Fe22  y  1     0                0.1559(4)
 Fe22  z  1     0               -0.0646(5)
 Fe22  x  2     0                0
 Fe22  y  2     0                0
 Fe22  z  2     0                0
 Fe22  x  3     0                0
 Fe22  y  3     0                0
 Fe22  z  3     0                0
 Fe22  x  4     0                0
 Fe22  y  4     0                0
 Fe22  z  4     0                0
 Fe22  x  5     0                0
 Fe22  y  5     0                0
 Fe22  z  5     0                0
 Fe22  x  6     0               -0.0013(3)
 Fe22  y  6     0                0.01001(19)
 Fe22  z  6     0                0.0224(2)
 Fe22  x  7     0                0
 Fe22  y  7     0                0
 Fe22  z  7     0                0
 Fe22  x  8     0                0
 Fe22  y  8     0                0
 Fe22  z  8     0                0
 Fe22  x  9     0                0
 Fe22  y  9     0                0
 Fe22  z  9     0                0
 Fe22  x 10     0                0
 Fe22  y 10     0                0
 Fe22  z 10     0                0
 Fe22  x 11     0                0
 Fe22  y 11     0                0
 Fe22  z 11     0                0
 Fe22  x 12     0                0.0030(2)
 Fe22  y 12     0               -0.00857(14)
 Fe22  z 12     0               -0.0114(3)
 Ti23  x  1     0               -0.0021(7)
 Ti23  y  1     0                0.1559(4)
 Ti23  z  1     0               -0.0646(5)
 Ti23  x  2     0                0
 Ti23  y  2     0                0
 Ti23  z  2     0                0
 Ti23  x  3     0                0
 Ti23  y  3     0                0
 Ti23  z  3     0                0
 Ti23  x  4     0                0
 Ti23  y  4     0                0
 Ti23  z  4     0                0
 Ti23  x  5     0                0
 Ti23  y  5     0                0
 Ti23  z  5     0                0
 Ti23  x  6     0               -0.0013(3)
 Ti23  y  6     0                0.01001(19)
 Ti23  z  6     0                0.0224(2)
 Ti23  x  7     0                0
 Ti23  y  7     0                0
 Ti23  z  7     0                0
 Ti23  x  8     0                0
 Ti23  y  8     0                0
 Ti23  z  8     0                0
 Ti23  x  9     0                0
 Ti23  y  9     0                0
 Ti23  z  9     0                0
 Ti23  x 10     0                0
 Ti23  y 10     0                0
 Ti23  z 10     0                0
 Ti23  x 11     0                0
 Ti23  y 11     0                0
 Ti23  z 11     0                0
 Ti23  x 12     0                0.0030(2)
 Ti23  y 12     0               -0.00857(14)
 Ti23  z 12     0               -0.0114(3)
 Fe23  x  1     0               -0.0021(7)
 Fe23  y  1     0                0.1559(4)
 Fe23  z  1     0               -0.0646(5)
 Fe23  x  2     0                0
 Fe23  y  2     0                0
 Fe23  z  2     0                0
 Fe23  x  3     0                0
 Fe23  y  3     0                0
 Fe23  z  3     0                0
 Fe23  x  4     0                0
 Fe23  y  4     0                0
 Fe23  z  4     0                0
 Fe23  x  5     0                0
 Fe23  y  5     0                0
 Fe23  z  5     0                0
 Fe23  x  6     0               -0.0013(3)
 Fe23  y  6     0                0.01001(19)
 Fe23  z  6     0                0.0224(2)
 Fe23  x  7     0                0
 Fe23  y  7     0                0
 Fe23  z  7     0                0
 Fe23  x  8     0                0
 Fe23  y  8     0                0
 Fe23  z  8     0                0
 Fe23  x  9     0                0
 Fe23  y  9     0                0
 Fe23  z  9     0                0
 Fe23  x 10     0                0
 Fe23  y 10     0                0
 Fe23  z 10     0                0
 Fe23  x 11     0                0
 Fe23  y 11     0                0
 Fe23  z 11     0                0
 Fe23  x 12     0                0.0030(2)
 Fe23  y 12     0               -0.00857(14)
 Fe23  z 12     0               -0.0114(3)

loop_
 _jana_atom_site_displace_crenel_ortho_atom_site_label
 _jana_atom_site_displace_crenel_ortho_axis
 _jana_atom_site_displace_crenel_ortho_id
 _jana_atom_site_displace_crenel_ortho_param_order
 _jana_atom_site_displace_crenel_ortho_param_coeff
 La1   x  1  1  0.00008(10)
 La1   y  1  1  0.03829(4)
 La1   z  1  1  0.00040(6)
 La1   x  1  2  0.00015(3)
 La1   y  1  2 -0.00060(4)
 La1   z  1  2  0.00051(4)
 O1    x  4  1  0.0000(5)
 O1    y  4  1  0.0221(6)
 O1    z  4  1 -0.0105(5)
 O1    x  4  2  0.0004(3)
 O1    y  4  2  0.0077(5)
 O1    z  4  2  0.0058(5)
 O1    x  4  3  0.0009(6)
 O1    y  4  3 -0.0053(8)
 O1    z  4  3  0.0056(8)
 O1    x  4  4  0.0004(4)
 O1    y  4  4 -0.0061(5)
 O1    z  4  4 -0.0012(6)
 O1    x  4  5 -0.0004(8)
 O1    y  4  5  0.0103(10)
 O1    z  4  5  0.0030(9)
 O1    x  4  6  0
 O1    y  4  6  0
 O1    z  4  6  0
 O2    x  5  1  0.0016(3)
 O2    y  5  1  0.0345(4)
 O2    z  5  1  0.0013(4)
 O2    x  5  2 -0.0086(4)
 O2    y  5  2 -0.0040(4)
 O2    z  5  2  0.0142(5)
 O2    x  5  3  0.0056(4)
 O2    y  5  3 -0.0047(5)
 O2    z  5  3 -0.0062(5)
 O2    x  5  4  0.0029(3)
 O2    y  5  4  0.0083(5)
 O2    z  5  4 -0.0040(5)
 O2    x  5  5 -0.0074(4)
 O2    y  5  5  0.0065(6)
 O2    z  5  5  0.0030(5)
 O2    x  5  6  0
 O2    y  5  6  0
 O2    z  5  6  0
 O3    x  6  1 -0.0018(3)
 O3    y  6  1  0.0372(4)
 O3    z  6  1  0.0008(4)
 O3    x  6  2  0.0061(3)
 O3    y  6  2  0.0022(4)
 O3    z  6  2  0.0164(5)
 O3    x  6  3 -0.0056(4)
 O3    y  6  3 -0.0021(5)
 O3    z  6  3 -0.0063(5)
 O3    x  6  4 -0.0015(3)
 O3    y  6  4  0.0048(5)
 O3    z  6  4 -0.0042(5)
 O3    x  6  5  0.0063(4)
 O3    y  6  5  0.0035(6)
 O3    z  6  5  0.0032(5)
 O3    x  6  6  0
 O3    y  6  6  0
 O3    z  6  6  0

loop_
 _jana_atom_site_U_crenel_ortho_atom_site_label
 _jana_atom_site_U_crenel_ortho_tens_elem
 _jana_atom_site_U_crenel_ortho_id
 _jana_atom_site_U_crenel_ortho_param_order
 _jana_atom_site_U_crenel_ortho_param_coeff
 La1   U11  1  1  0.00044(6)
 La1   U22  1  1  0.00055(7)
 La1   U33  1  1  0.00106(9)
 La1   U12  1  1  0.00013(9)
 La1   U13  1  1  0.00007(6)
 La1   U23  1  1 -0.00020(10)
 La1   U11  1  2  0.00071(7)
 La1   U22  1  2  0.00058(7)
 La1   U33  1  2 -0.00092(10)
 La1   U12  1  2 -0.00005(11)
 La1   U13  1  2  0.00031(16)
 La1   U23  1  2  0.00048(8)
 La1   U11  1  3 -0.00029(9)
 La1   U22  1  3  0.00076(10)
 La1   U33  1  3 -0.00046(12)
 La1   U12  1  3 -0.00017(8)
 La1   U13  1  3 -0.00013(9)
 La1   U23  1  3 -0.00034(17)
 La1   U11  1  4  0
 La1   U22  1  4  0
 La1   U33  1  4  0
 La1   U12  1  4  0
 La1   U13  1  4  0
 La1   U23  1  4  0

#=======================================================================

# 10. MOLECULAR GEOMETRY


loop_
 _geom_bond_atom_site_label_1
 _geom_bond_atom_site_label_2
 _geom_bond_site_ssg_symmetry_1
 _geom_bond_site_ssg_symmetry_2
 _geom_bond_distance_av
 _geom_bond_distance_min
 _geom_bond_distance_max
 _geom_bond_publ_flag
  La1 Ti11 . 1_5545 3.436(3) 3.436(3) 3.436(3) ?
  La1 Ti11 . . 3.371(3) 3.371(3) 3.371(3) ?
  La1 Ti11 . 6_5445 3.341(2) 3.341(2) 3.341(2) ?
  La1 Fe11 . 1_5545 3.436(3) 3.436(3) 3.436(3) ?
  La1 Fe11 . . 3.371(3) 3.371(3) 3.371(3) ?
  La1 Fe11 . 6_5445 3.341(2) 3.341(2) 3.341(2) ?
  La1 Ti13 . 6_5445 3.3261(16) 3.3261(16) 3.3261(16) ?
  La1 Fe13 . 6_5445 3.3261(16) 3.3261(16) 3.3261(16) ?
  La1 Ti21 . 1_4545 3.426(3) 3.426(3) 3.426(3) ?
  La1 Ti21 . 1_4555 3.358(3) 3.358(3) 3.358(3) ?
  La1 Ti21 . 6_5445 3.353(2) 3.353(2) 3.353(2) ?
  La1 Fe21 . 1_4545 3.426(3) 3.426(3) 3.426(3) ?
  La1 Fe21 . 1_4555 3.358(3) 3.358(3) 3.358(3) ?
  La1 Fe21 . 6_5445 3.353(2) 3.353(2) 3.353(2) ?
  La1 Ti23 . 6_5445 3.3378(15) 3.3378(15) 3.3378(15) ?
  La1 Fe23 . 6_5445 3.3378(15) 3.3378(15) 3.3378(15) ?
  La1 O1 . 1_5545 2.45(4) 2.44(2) 2.47(7) ?
  La1 O1 . . 3.13(4) 3.12(2) 3.13(7) ?
  La1 O2 . . 2.481(18) 2.425(18) 2.536(18) ?
  La1 O2 . 6_5545 3.187(18) 3.136(18) 3.238(18) ?
  La1 O3 . 1_4555 2.465(17) 2.424(17) 2.507(18) ?
  La1 O3 . 6_5545 3.197(17) 3.160(18) 3.235(17) ?
  La1 Ti121 . 5_5555 3.460(3) 3.460(3) 3.460(3) ?
  La1 Ti121 . 5_5565 3.365(3) 3.365(3) 3.365(3) ?
  La1 Fe121 . 5_5555 3.460(3) 3.460(3) 3.460(3) ?
  La1 Fe121 . 5_5565 3.365(3) 3.365(3) 3.365(3) ?
  La1 Ti221 . 5_5555 3.420(3) 3.420(3) 3.420(3) ?
  La1 Ti221 . 5_5565 3.336(3) 3.336(3) 3.336(3) ?
  La1 Fe221 . 5_5555 3.420(3) 3.420(3) 3.420(3) ?
  La1 Fe221 . 5_5565 3.336(3) 3.336(3) 3.336(3) ?
  La1 O11 . 2_5455 3.09(5) 2.94(7) 3.23(2) ?
  La1 O11 . 2_5555 3.04(5) 2.40(2) 3.68(7) ?
  La1 O21 . 5_5555 2.733(10) 2.654(3) 2.813(17) ?
  La1 O21 . 2_5455 2.910(10) 2.893(2) 2.927(17) ?
  La1 O31 . 5_5555 2.684(10) 2.627(3) 2.742(17) ?
  La1 O31 . 2_4455 2.904(9) 2.893(17) 2.916(2) ?
  La2 Ti13 . 1_5545 3.3960(18) 3.3960(18) 3.3960(18) ?
  La2 Ti13 . 8_5645 3.3576(9) 3.3576(9) 3.3576(9) ?
  La2 Fe13 . 1_5545 3.3960(18) 3.3960(18) 3.3960(18) ?
  La2 Fe13 . 8_5645 3.3576(9) 3.3576(9) 3.3576(9) ?
  La2 Ti23 . 1_4545 3.3895(18) 3.3895(18) 3.3895(18) ?
  La2 Fe23 . 1_4545 3.3895(18) 3.3895(18) 3.3895(18) ?
  La2 O1 . 1_5545 2.56(7) 2.56(7) 2.56(7) ?
  La2 O2 . . 2.45(2) 2.45(2) 2.45(2) ?
  La2 O2 . 3_4555 2.50(2) 2.50(2) 2.50(2) ?
  La2 O2 . 6_5545 2.43(2) 2.43(2) 2.43(2) ?
  La2 O2 . 8_5645 2.55(2) 2.55(2) 2.55(2) ?
  La2 O3 . 1_4555 2.395(19) 2.395(19) 2.395(19) ?
  La2 O3 . 6_5545 2.457(19) 2.457(19) 2.457(19) ?
  La2 O11 . 2_5455 3.26(7) 3.26(7) 3.26(7) ?
  La2 O21 . 5_5555 3.212(17) 3.212(17) 3.212(17) ?
  La2 O31 . 5_5555 3.217(17) 3.217(17) 3.217(17) ?
  Ti11 O1 . . 2.00(2) 2.00(2) 2.00(2) ?
  Ti11 O2 . . 1.944(18) 1.944(18) 1.944(18) ?
  Ti11 O2 . 6_5555 2.005(17) 2.005(17) 2.005(17) ?
  Ti11 La11 . 5_5555 3.389(3) 3.389(3) 3.389(3) ?
  Ti11 La11 . 5_5565 3.408(3) 3.408(3) 3.408(3) ?
  Ti11 La11 . 2_5555 3.358(2) 3.358(2) 3.358(2) ?
  Ti11 O11 . 5_5565 1.98(3) 1.98(3) 1.98(3) ?
  Ti11 O21 . 5_5565 1.928(3) 1.928(3) 1.928(3) ?
  Ti11 O21 . 2_5455 2.130(3) 2.130(3) 2.130(3) ?
  Fe11 O1 . . 2.00(2) 2.00(2) 2.00(2) ?
  Fe11 O2 . . 1.944(18) 1.944(18) 1.944(18) ?
  Fe11 O2 . 6_5555 2.005(17) 2.005(17) 2.005(17) ?
  Fe11 La11 . 5_5555 3.389(3) 3.389(3) 3.389(3) ?
  Fe11 La11 . 5_5565 3.408(3) 3.408(3) 3.408(3) ?
  Fe11 La11 . 2_5555 3.358(2) 3.358(2) 3.358(2) ?
  Fe11 O11 . 5_5565 1.98(3) 1.98(3) 1.98(3) ?
  Fe11 O21 . 5_5565 1.928(3) 1.928(3) 1.928(3) ?
  Fe11 O21 . 2_5455 2.130(3) 2.130(3) 2.130(3) ?
  Ti13 O1 . . 2.00(8) 2.00(8) 2.00(8) ?
  Ti13 O2 . . 1.820(19) 1.820(19) 1.820(19) ?
  Ti13 O2 . 6_5555 1.87(2) 1.87(2) 1.87(2) ?
  Ti13 La11 . 2_5455 3.4452(15) 3.4452(15) 3.4452(15) ?
  Ti13 La31 . 5_5565 3.4983(18) 3.4983(18) 3.4983(18) ?
  Ti13 O11 . 5_5565 2.02(8) 2.02(8) 2.02(8) ?
  Ti13 O21 . 5_5565 2.296(16) 2.296(16) 2.296(16) ?
  Ti13 O21 . 2_5455 1.714(17) 1.714(17) 1.714(17) ?
  Fe13 O1 . . 2.00(8) 2.00(8) 2.00(8) ?
  Fe13 O2 . . 1.820(19) 1.820(19) 1.820(19) ?
  Fe13 O2 . 6_5555 1.87(2) 1.87(2) 1.87(2) ?
  Fe13 La11 . 2_5455 3.4452(15) 3.4452(15) 3.4452(15) ?
  Fe13 La31 . 5_5565 3.4983(18) 3.4983(18) 3.4983(18) ?
  Fe13 O11 . 5_5565 2.02(8) 2.02(8) 2.02(8) ?
  Fe13 O21 . 5_5565 2.296(16) 2.296(16) 2.296(16) ?
  Fe13 O21 . 2_5455 1.714(17) 1.714(17) 1.714(17) ?
  Ti21 O1 . 1_6555 1.99(2) 1.99(2) 1.99(2) ?
  Ti21 O3 . . 1.940(17) 1.940(17) 1.940(17) ?
  Ti21 O3 . 6_6555 2.020(18) 2.020(18) 2.020(18) ?
  Ti21 La11 . 5_5555 3.396(3) 3.396(3) 3.396(3) ?
  Ti21 La11 . 5_5565 3.418(3) 3.418(3) 3.418(3) ?
  Ti21 La11 . 2_6455 3.4910(19) 3.4910(19) 3.4910(19) ?
  Ti21 La11 . 2_6555 3.346(2) 3.346(2) 3.346(2) ?
  Ti21 O11 . 5_5565 2.09(3) 2.09(3) 2.09(3) ?
  Ti21 O31 . 5_6565 1.964(3) 1.964(3) 1.964(3) ?
  Ti21 O31 . 2_5455 2.097(3) 2.097(3) 2.097(3) ?
  Fe21 O1 . 1_6555 1.99(2) 1.99(2) 1.99(2) ?
  Fe21 O3 . . 1.940(17) 1.940(17) 1.940(17) ?
  Fe21 O3 . 6_6555 2.020(18) 2.020(18) 2.020(18) ?
  Fe21 La11 . 5_5555 3.396(3) 3.396(3) 3.396(3) ?
  Fe21 La11 . 5_5565 3.418(3) 3.418(3) 3.418(3) ?
  Fe21 La11 . 2_6455 3.4910(19) 3.4910(19) 3.4910(19) ?
  Fe21 La11 . 2_6555 3.346(2) 3.346(2) 3.346(2) ?
  Fe21 O11 . 5_5565 2.09(3) 2.09(3) 2.09(3) ?
  Fe21 O31 . 5_6565 1.964(3) 1.964(3) 1.964(3) ?
  Fe21 O31 . 2_5455 2.097(3) 2.097(3) 2.097(3) ?
  Ti23 O1 . 1_6555 2.01(8) 2.01(8) 2.01(8) ?
  Ti23 O3 . . 1.772(19) 1.772(19) 1.772(19) ?
  Ti23 O3 . 6_6555 1.883(19) 1.883(19) 1.883(19) ?
  Ti23 La11 . 2_6455 3.4885(15) 3.4885(15) 3.4885(15) ?
  Ti23 La31 . 5_5565 3.4632(18) 3.4632(18) 3.4632(18) ?
  Ti23 O11 . 5_5565 1.99(8) 1.99(8) 1.99(8) ?
  Ti23 O31 . 5_6565 2.321(16) 2.321(16) 2.321(16) ?
  Ti23 O31 . 2_5455 1.837(17) 1.837(17) 1.837(17) ?
  Fe23 O1 . 1_6555 2.01(8) 2.01(8) 2.01(8) ?
  Fe23 O3 . . 1.772(19) 1.772(19) 1.772(19) ?
  Fe23 O3 . 6_6555 1.883(19) 1.883(19) 1.883(19) ?
  Fe23 La11 . 2_6455 3.4885(15) 3.4885(15) 3.4885(15) ?
  Fe23 La31 . 5_5565 3.4632(18) 3.4632(18) 3.4632(18) ?
  Fe23 O11 . 5_5565 1.99(8) 1.99(8) 1.99(8) ?
  Fe23 O31 . 5_6565 2.321(16) 2.321(16) 2.321(16) ?
  Fe23 O31 . 2_5455 1.837(17) 1.837(17) 1.837(17) ?
  O1 O2 . . 2.83(6) 2.76(8) 2.95(8) ?
  O1 O2 . 6_5555 2.78(6) 2.76(8) 2.79(3) ?
  O1 O3 . 1_4555 2.81(6) 2.73(8) 2.90(8) ?
  O1 O3 . 6_5555 2.79(6) 2.74(8) 2.81(3) ?
  O1 La11 . 2_5455 2.78(5) 2.60(7) 2.96(2) ?
  O1 La11 . 2_5555 2.59(5) 2.47(7) 2.71(2) ?
  O1 Ti121 . 5_5565 2.06(8) 2.06(8) 2.06(8) ?
  O1 Fe121 . 5_5565 2.06(8) 2.06(8) 2.06(8) ?
  O1 Ti221 . 5_5565 1.98(8) 1.98(8) 1.98(8) ?
  O1 Fe221 . 5_5565 1.98(8) 1.98(8) 1.98(8) ?
  O1 O11 . 2_5465 3.58(8) 2.60(10) 4.09(10) ?
  O1 O11 . 2_5565 3.45(7) 3.06(7) 3.84(7) ?
  O1 O21 . 5_5565 2.82(6) 2.65(8) 3.09(8) ?
  O1 O21 . 2_5455 2.79(6) 2.39(8) 3.03(8) ?
  O1 O31 . 5_5565 2.81(6) 2.70(8) 3.00(8) ?
  O1 O31 . 2_4455 2.78(6) 2.44(8) 2.96(8) ?
  O2 O2 . 3_4555 2.85(3) 2.85(3) 2.85(3) ?
  O2 O2 . 7_5455 2.85(3) 2.85(3) 2.85(3) ?
  O2 O2 . 6_5545 2.82(3) 2.73(3) 2.88(2) ?
  O2 O2 . 6_5555 2.82(3) 2.73(3) 2.88(2) ?
  O2 O3 . 1_4555 3.57(3) 3.42(3) 3.71(3) ?
  O2 O3 . 3_4555 2.93(3) 2.93(3) 2.93(3) ?
  O2 O3 . 7_4455 2.77(3) 2.77(3) 2.77(3) ?
  O2 La11 . 5_5555 2.767(18) 2.743(18) 2.790(18) ?
  O2 La11 . 2_5555 2.751(18) 2.719(17) 2.784(18) ?
  O2 La31 . 5_5555 2.50(2) 2.50(2) 2.50(2) ?
  O2 La31 . 2_5555 2.44(2) 2.44(2) 2.44(2) ?
  O2 Ti121 . 5_5565 2.024(17) 2.024(17) 2.024(17) ?
  O2 Ti121 . 2_5555 2.163(18) 2.163(18) 2.163(18) ?
  O2 Fe121 . 5_5565 2.024(17) 2.024(17) 2.024(17) ?
  O2 Fe121 . 2_5555 2.163(18) 2.163(18) 2.163(18) ?
  O2 O11 . 5_5565 2.83(6) 2.66(3) 3.05(8) ?
  O2 O11 . 2_5555 2.77(6) 2.39(8) 3.51(8) ?
  O2 O21 . 5_5555 3.36(2) 3.27(3) 3.53(2) ?
  O2 O21 . 2_5455 2.78(2) 2.62(3) 2.953(18) ?
  O2 O21 . 2_5555 2.78(2) 2.588(18) 3.00(3) ?
  O3 O3 . 3_4555 2.86(3) 2.86(3) 2.86(3) ?
  O3 O3 . 7_5455 2.86(3) 2.86(3) 2.86(3) ?
  O3 O3 . 6_6545 2.84(3) 2.74(3) 2.91(3) ?
  O3 O3 . 6_6555 2.84(3) 2.74(3) 2.91(3) ?
  O3 La11 . 5_5555 2.756(17) 2.725(17) 2.786(18) ?
  O3 La11 . 2_6555 2.761(17) 2.724(18) 2.798(17) ?
  O3 La31 . 3_5455 2.529(19) 2.529(19) 2.529(19) ?
  O3 La31 . 5_5555 2.468(19) 2.468(19) 2.468(19) ?
  O3 La31 . 2_6555 2.463(19) 2.463(19) 2.463(19) ?
  O3 La31 . 4_5655 3.04(2) 3.04(2) 3.04(2) ?
  O3 Ti221 . 5_6565 2.030(18) 2.030(18) 2.030(18) ?
  O3 Ti221 . 2_5555 2.180(17) 2.180(17) 2.180(17) ?
  O3 Fe221 . 5_6565 2.030(18) 2.030(18) 2.030(18) ?
  O3 Fe221 . 2_5555 2.180(17) 2.180(17) 2.180(17) ?
  O3 O11 . 3_5465 3.31(7) 3.31(7) 3.31(7) ?
  O3 O11 . 5_5565 2.85(6) 2.74(3) 3.03(8) ?
  O3 O11 . 2_6555 2.80(6) 2.41(8) 3.51(8) ?
  O3 O11 . 4_5655 3.42(7) 3.42(7) 3.42(7) ?
  O3 O31 . 5_6555 3.26(2) 3.14(3) 3.41(2) ?
  O3 O31 . 2_5455 2.79(2) 2.66(3) 2.939(17) ?
  O3 O31 . 2_5555 2.78(2) 2.628(18) 2.89(2) ?
  La11 Ti121 . . 3.417(3) 3.417(3) 3.417(3) ?
  La11 Ti121 . 1_5565 3.366(3) 3.366(3) 3.366(3) ?
  La11 Ti121 . 6_4555 3.425(3) 3.425(3) 3.425(3) ?
  La11 Fe121 . . 3.417(3) 3.417(3) 3.417(3) ?
  La11 Fe121 . 1_5565 3.366(3) 3.366(3) 3.366(3) ?
  La11 Fe121 . 6_4555 3.425(3) 3.425(3) 3.425(3) ?
  La11 Ti221 . 1_6555 3.443(3) 3.443(3) 3.443(3) ?
  La11 Ti221 . 1_6565 3.404(3) 3.404(3) 3.404(3) ?
  La11 Ti221 . 6_4555 3.407(3) 3.407(3) 3.407(3) ?
  La11 Fe221 . 1_6555 3.443(3) 3.443(3) 3.443(3) ?
  La11 Fe221 . 1_6565 3.404(3) 3.404(3) 3.404(3) ?
  La11 Fe221 . 6_4555 3.407(3) 3.407(3) 3.407(3) ?
  La11 O11 . . 3.28(5) 2.95(2) 3.60(7) ?
  La11 O11 . 1_5565 2.43(5) 2.18(7) 2.67(2) ?
  La11 O21 . . 2.395(10) 2.387(3) 2.402(17) ?
  La11 O21 . 6_4455 3.127(10) 2.963(17) 3.292(3) ?
  La11 O31 . 1_6555 2.361(10) 2.335(17) 2.388(2) ?
  La11 O31 . 6_4455 3.171(9) 3.059(17) 3.283(2) ?
  La31 O11 . . 2.58(7) 2.58(7) 2.58(7) ?
  La31 O11 . 1_5565 3.09(7) 3.09(7) 3.09(7) ?
  La31 O21 . . 3.093(17) 3.093(17) 3.093(17) ?
  La31 O31 . 1_6555 2.973(17) 2.973(17) 2.973(17) ?
  Ti121 O11 . . 2.16(8) 2.16(8) 2.16(8) ?
  Ti121 O21 . . 2.140(17) 2.140(17) 2.140(17) ?
  Ti121 O21 . 6_4445 1.739(17) 1.739(17) 1.739(17) ?
  Fe121 O11 . . 2.16(8) 2.16(8) 2.16(8) ?
  Fe121 O21 . . 2.140(17) 2.140(17) 2.140(17) ?
  Fe121 O21 . 6_4445 1.739(17) 1.739(17) 1.739(17) ?
  Ti221 O11 . 1_4555 2.19(8) 2.19(8) 2.19(8) ?
  Ti221 O31 . . 2.078(17) 2.078(17) 2.078(17) ?
  Ti221 O31 . 6_3445 1.746(17) 1.746(17) 1.746(17) ?
  Fe221 O11 . 1_4555 2.19(8) 2.19(8) 2.19(8) ?
  Fe221 O31 . . 2.078(17) 2.078(17) 2.078(17) ?
  Fe221 O31 . 6_3445 1.746(17) 1.746(17) 1.746(17) ?
  O11 O21 . . 2.98(6) 2.88(2) 3.06(8) ?
  O11 O21 . 6_4445 2.82(6) 2.10(8) 3.29(2) ?
  O11 O31 . 1_6555 2.99(6) 2.98(2) 3.00(8) ?
  O11 O31 . 6_4445 2.87(6) 2.17(8) 3.32(2) ?
  O21 O21 . 6_4445 2.832(16) 2.77(2) 2.908(3) ?
  O21 O21 . 6_4455 2.832(16) 2.77(2) 2.908(3) ?
  O21 O31 . 1_6555 3.574(18) 3.28(2) 3.93(2) ?
  O31 O31 . 6_3445 2.843(16) 2.80(2) 2.896(3) ?
  O31 O31 . 6_3455 2.843(16) 2.80(2) 2.896(3) ?






