data_global

# publcif _publ_body_label loop start
loop_
_publ_body_label
_publ_body_contents

 ? ?
 
;
Introduction
; 
;
Over the past half century, tris(pyrazolyl)borate (Tp) ligands or `scorpionates;
have enjoyed a rich history in inorganic and coordination chemistry. Their
popularity is due, in part, to the ease of preparation and ability to
stabilize a wide range of metal complexes <i>via</i> facile tuning of both
steric and electronic properties of these monoanionic nitrogen tripods
(Trofimenko, 1999; Pettinari, 2008). In our laboratory, we have employed
sterically bulky scorpionates (<i>e.g.</i> Tp^tBu,Me^ and Tp^iPr,Me^) <i>inter
alia</i> in attempts to activate dioxygen and isolate elusive terminal
metal--oxo complexes. Characterization and isolation of these highly reactive
species has proven challenging and often led to the isolation of products of
C---H activation (Egan <i>et al.</i>, 1990; Reinaud <i>et al.</i>, 1994;
Thyagarajan <i>et al.</i>, 2001; Qin <i>et al.</i>, 2002<i>a</i>,<i>b</i>).
Borovik has had notable success stabilizing terminal transition metal--oxo
species using ligands that have the ability to stabilize the oxo ligand
through hydrogen-bonding interactions (Borovik, 2005; Taguchi <i>et al.</i>,
2012). The success of these ligands led us to contemplate the chemistry of
tris(pyrazolyl)borates with similar hydrogen bonding ability. A review of the
scorpionate literature reveals some tris(pyrazolyl)borate ligands which have
been functionalized with carboxamide substituents. Unfortunately, the
syntheses reported for these ligands suffered from impurities and low yields
(Olmo <i>et al.</i>, 2006). Low-yielding ligand preparations are
unsustainable, especially in cases where the preparation of the parent
pyrazole involves nontrivial, multistep syntheses. Trofimenko reported a
similar ligand system in which a high boiling solvent was utilized (Rheingold
<i>et al.</i>, 2000). Presented is an eminently practical adaptation for the
synthesis of sterically hindered carboxamide-substituted tris(pyrazolyl)borate
ligands.

# publcif _publ_body_label loop end

loop_
_geom_extra_tableA_col_1
_geom_extra_tableA_col_2
_geom_extra_tableA_col_3
'Compound' '\nCO (cm^-1^)' 'Reference' 
'Tp^i-Pr,i-Pr^Cu(CO)' 2056 '(Kitajima et al., 1992)' 
'Tp^Me,Me^Cu(CO)' 2066 '(Mealli et al., 1976)' 
'TpCu(CO)' 2083 '(Bruce et al., 1972)' 
'Tp^Ph,Ph^Cu(CO)' 2086 '(Kitajima et al., 1992)' 
'Tp^CONHt-Bu,Me^Cu(CO)' 2088 '(This work)' 
'Tp^CONHPh,Me^Cu(CO)' 2092 '(This work)' 
'Tp^C~3~F~7~,Me^Cu(CO)' 2099 '(King et al., 2009)' 
'Tp^CF~3~^Cu(CO)' 2100 '(Dias & Kim, 1996)' 
'Tp^C~3~F~7~^Cu(CO)' 2102 '(Dias & Kim, 1996)' 
'Tp^C~2~F~5~^Cu(CO)' 2110 '(Dias & Kim, 1996)' 
'Tp^CF~3~,CF~3~^Cu(CO)' 2137 '(Dias et al., 1996)' 
'CO' 2143 '(Braterman, 1975)' 

_geom_extra_table_head_A
;
Table 7. Comparison of CO stretching frequencies 
for Tp^R1,R2^Cu(CO)complexes and free CO.
;

loop_
_publ_manuscript_incl_extra_item
_publ_manuscript_incl_extra_defn
'_geom_extra_table_head_A'  no
'_geom_extra_tableA_col_1'  no
'_geom_extra_tableA_col_2'  no
'_geom_extra_tableA_col_3'  no

#==============================================================================
# PROCESSING SUMMARY (IUCr Office Use Only)

_journal_date_recd_electronic      2013-04-30
_journal_date_to_coeditor         ?
_journal_date_from_coeditor       ?
_journal_date_accepted     2013-06-07
_journal_date_printers_first      ?
_journal_date_printers_final      ?
_journal_date_proofs_out          ?
_journal_date_proofs_in           ?
_journal_coeditor_name            ?
_journal_coeditor_code      EG3122
_journal_coeditor_notes
?
_journal_paper_category      FM
_journal_techeditor_code      C131589
_iucr_compatibility_tag          ACTA95
_journal_techeditor_notes  
;
;
_journal_coden_ASTM               ?
_journal_name_full                ?
_journal_year                     ?
_journal_volume                   ?
_journal_issue                    ?
_journal_page_first               ?
_journal_page_last                ?
_journal_suppl_publ_number        ?
_journal_suppl_publ_pages         ?

#==============================================================================
#Added by publCIF
# Added by publCIF - use a unique identifier for each data block

#==============================================================================
# SUBMISSION DETAILS

_publ_contact_author_name               'Klaus H. Theopold'
_publ_contact_author_address             
; 
Department of Chemistry and Biochemistry
Center for Catalytic Science and Technology
University of Delaware
Brown Laboratory
Newark
Delaware 19716
USA
;
_publ_contact_author_email           theopold@udel.edu
_publ_contact_author_fax             ?
_publ_contact_author_phone           '1-302-831-4269'

_publ_contact_letter
; 
Please accept this CIF submission for the Special Issue on Scorpionates in Acta 
Crystallographica Section C. 

Dedicated to the memory of the late Swiatoslaw `Jerry' Trofimenko, 
sage of all things scorpionate.

All authors have seen and approved this submission.

The CIF has passed the Chester CHECKCIF routines and gives a 
satisfactory PRINTCIF file.  

Suggested Keywords:
scorpionates, Cu carbonyl, Tl salts, hydrogen bond

Suggested Reviewers:

1) Zi-Ling (Ben) Xue, xue@ion.chem.utk.edu
2) Daniel L. Reger, reger@mailbox.sc.edu
3) Richard F. Jordan, rfjordan@uchicago.edu
;
   
_publ_requested_journal              'Acta Cryst C'
_publ_requested_category             ?   

#==============================================================================
# TITLE AND AUTHOR LIST

_publ_section_title
;
Improved syntheses, structural and electronic characterization of
carboxamide-substituted Tp^CONHPh,Me^ and Tp^CONH^<i>^t^</i>^-Bu,Me^ ligands
[[This is a duplication report for article xx0000. Does this work.]]


;

_publ_section_title_footnote
;
 Dedicated to the memory of the late Swiatoslaw `Jerry' Trofimenko, sage of all
things scorpionate.
;

loop_
_publ_author_name
_publ_author_address
_publ_author_footnote
_publ_author_email
'Sirianni, Eric R.'
;
Department of Chemistry and Biochemistry
Center for Catalytic Science and Technology
University of Delaware
Brown Laboratory
Newark, Delaware 19716
USA
;
.
;
sirianni@udel.edu
;
'Yap, Glenn P. A.'
;
Department of Chemistry and Biochemistry
Center for Catalytic Science and Technology
University of Delaware
Brown Laboratory
Newark, Delaware 19716
USA
;
.
;
gpyap@udel.edu
;
'Akturk, Eser S.'
;
Department of Chemistry and Biochemistry
Center for Catalytic Science and Technology
University of Delaware
Brown Laboratory
Newark, Delaware 19716
USA
;
.
;
esakturk@udel.edu
;
'Theopold, Klaus H.'
;
Department of Chemistry and Biochemistry
Center for Catalytic Science and Technology
University of Delaware
Brown Laboratory
Newark, Delaware 19716
USA
;
.
;
theopold@udel.edu
;

#==============================================================================
# TEXT

_publ_section_synopsis
;
Improved syntheses and electronic characterization of carboxamide-substituted
tris(pyrazolyl)borate ligands are reported. Their Tl^I^ salts and the Cu^I^
carbonyl complexes have been prepared and are compared with alkyl-substituted
tris(pyrazolyl)borate ligands.
;

# Related literature generated by publCIF 2013-04-30
_publ_section_related_literature
;
For related literature, see: Borovik (2005);
Claramunt <i>et al.</i> (2005);
Egan, Haggerty, Rheingold, Sendlinger & Theopold (1990);
Huang <i>et al.</i> (2010);
Inokuma <i>et al.</i> (2013);
Janiak (1997);
Musante (1945);
Olmo <i>et al.</i> (2006);
Pettinari (2008);
Reinaud & Theopold (1994);
Rheingold <i>et al.</i> (2000);
Taguchi <i>et al.</i> (2012);
Thyagarajan <i>et al.</i> (2001);
Trofimenko (1999).
;

_publ_section_abstract
;\
Improvements of the syntheses of carboxamide-substituted tris(pyrazolyl)borate
ligands Tp^CONHPh,Me^ [tris(3-anilinocarbonyl-5-methylpyrazol-1-yl)borate] and
Tp^CONH^<i>^t^</i>^-Bu,Me^
[tris(3-<i>tert</i>-butylaminocarbonyl-5-methylpyrazol-1-yl)borate] are
reported. Their Tl^I^ salts,
[tris(3-anilinocarbonyl-5-methylpyrazol-1-yl-\k<i>N</i>^2^)borato]thallium(I),
[Tl(C~33~H~31~BN~9~O~3~)], (II), and
[tris(3-<i>tert</i>-butylaminocarbonyl-5-methylpyrazol-1-yl-\k<i>N</i>^2^)\
borato]thallium(I), [Tl(C~27~H~43~BN~9~O~3~)], (III), as well as the Cu^I^
carbonyl complexes Tp^CONHPh,Me^Cu(CO), namely
carbonyl[tris(3-anilinocarbonyl-5-methylpyrazol-1-yl-\k<i>N</i>^2^)borato]\
copper(I) tetrahydrofuran trisolvate,
[Cu(C~33~H~31~BN~9~O~3~)(CO)].3C~4~H~8~O, (IV), and
Tp^CONH^<i>^t^</i>^-Bu,Me^Cu(CO), namely
carbonyl[tris(3-<i>tert</i>-butylaminocarbonyl-5-methylpyrazol-1-yl-\
\k<i>N</i>^2^)borato]copper(I) tetrahydrofuran hemisolvate,
Tp^CONH^<i>^t^</i>^-Bu,Me^Cu(CO), [Cu(C~27~H~43~BN~9~O~3~)(CO)].0.5C~4~H~8~O,
(V), have been prepared. Their spectroscopic properties and structures are
compared to related compounds. Molecules of (II)--(V) show hydrogen bonding
either to solvent molecules or to neighboring compound molecules <i>via</i>
amide groups. The title compounds feature the ability to engage other ligands
in hydrogen bonding and they show strong electron-withdrawing character.
Compound (V) displays voids of <i>ca</i> 800 \%A^3^ in the crystal.
;

_publ_section_comment
;
Introduction

Over the past half century, tris(pyrazolyl)borate (Tp) ligands or
`scorpionates; have enjoyed a rich history in inorganic and coordination
chemistry. Their popularity is due, in part, to the ease of preparation and
ability to stabilize a wide range of metal complexes <i>via</i> facile tuning
of both steric and electronic properties of these monoanionic nitrogen tripods
(Trofimenko, 1999; Pettinari, 2008). In our laboratory, we have employed
sterically bulky scorpionates (<i>e.g.</i> Tp^tBu,Me^ and Tp^iPr,Me^) <i>inter
alia</i> in attempts to activate dioxygen and isolate elusive terminal
metal--oxo complexes. Characterization and isolation of these highly reactive
species has proven challenging and often led to the isolation of products of
C---H activation (Egan <i>et al.</i>, 1990; Reinaud <i>et al.</i>, 1994;
Thyagarajan <i>et al.</i>, 2001; Qin <i>et al.</i>, 2002<i>a</i>,<i>b</i>).
Borovik has had notable success stabilizing terminal transition metal--oxo
species using ligands that have the ability to stabilize the oxo ligand
through hydrogen-bonding interactions (Borovik, 2005; Taguchi <i>et al.</i>,
2012). The success of these ligands led us to contemplate the chemistry of
tris(pyrazolyl)borates with similar hydrogen bonding ability. A review of the
scorpionate literature reveals some tris(pyrazolyl)borate ligands which have
been functionalized with carboxamide substituents. Unfortunately, the
syntheses reported for these ligands suffered from impurities and low yields
(Olmo <i>et al.</i>, 2006). Low-yielding ligand preparations are
unsustainable, especially in cases where the preparation of the parent
pyrazole involves nontrivial, multistep syntheses. Trofimenko reported a
similar ligand system in which a high boiling solvent was utilized (Rheingold
<i>et al.</i>, 2000). Presented is an eminently practical adaptation for the
synthesis of sterically hindered carboxamide-substituted tris(pyrazolyl)borate
ligands.

Discussion

The reaction of 3.5 equivalents of the appropriate pyrazole with potassium
borohydride in anisole at reflux (see Scheme 1) led to the isolation of
Tp^CONHPh,Me^Tl, (II), and Tp^CONH^<i>^t^</i>^-Bu,Me^Tl, (III), in high yields
(see Scheme 2). The previously reported synthesis of (I) employed a pyrazole
melt. The latter led to thermal decomposition of the pyrazole, which, in turn,
resulted in poor yield. Presumably, the use of a solvent with a boiling point
lower than the melting point of the pyrazole circumvents its thermal
decomposition. The low solubility of potassium salt (I) in anisole facilitated
its isolation in high yield and purity. Compound (I) could then easily be
converted into the corresponding Tl salt (II) through salt metathesis with
Tl~2~SO~4~. Similarly, the previously reported synthesis of
Tp^CONH^<i>^t^</i>^-Bu,Me^K yielded an impure mixture containing unreacted
pyrazole (Olmo <i>et al.</i>, 2006). Since both Tp^CONHt-Bu,Me^K and the free
pyrazole have similar solubilities, purification by fractional crystallization
proved difficult. Metathesis of the crude K salt mixture to yield the Tl salt,
which has significantly lower solubility, affords clean separation of (III)
from excess pyrazole.

The X-ray structures of (II) and (III) (Figs. 1 and 2) feature
trigonal--pyramidal coordination of Tl, which is typical of TlTp complexes
(Trofimenko, 1999; Pettinari, 2008). The average Tl---N bond distances of
2.696(3) \%A for (II) and 2.684(3) \%A for (III) are substantially longer than
the corresponding average in TpTl complexes (2.59 \%A; King <i>et al.</i>,
2009). Although one Tl---N bond is significantly shorter in each of these
compounds, this is most likely an effect of packing forces since the pyrazole
groups are equivalent in solution, as shown by ^1^H NMR. Compared to the
average N---Tl---N bond angle in TlTp complexes [75.1\%; Cambridge Structural
Database (CSD), Version 5.34, updated November 2012 (Allen, 2002)], the
average N---Tl---N angles of complexes (II) and (III) of 69.75(8) and
71.64(8)\%, respectively, are slightly more acute (Tables 1 and 2) (Janiak,
1997). These trends in the structural parameters are consistent with the
lesser electron-donor strength of the carboxamide-substituted ligand.

With synthons (II) and (III)in hand, we prepared the copper(I) carbonyl
complexes to elucidate the electron donating ability of these ligands. The
copper(I) complexes Tp^CONHPh,Me^Cu(CO), (IV), and
Tp^CONH^<i>^t^</i>^-Bu,Me^Cu(CO), (V) were prepared by reacting (II) or (III)
with Cu^I^ halide in THF under an atmosphere of CO (see Scheme 3). Compounds
(IV) and (V) (see Scheme 4) were isolated after recrystallization at 243 K.
Their ^1^H NMR spectra are consistent with diamagnetic Tp^CONHR,Me^ complexes
of monovalent copper (<i>d</i>^10^). The X-ray structure determinations of
(IV) and (V) (Figs. 3 and 4) reveal distorted tetrahedral coordination of
copper. The Tp^CONHR,Me^ ligand is bonded symmetrically to the metal center.
The carbonyl ligand sits inside the pocket created by the carboxamide
substituents. The average Cu---C---O angles for (IV) and (V) [178.3(3) and
174.4(4)\%, respectively] are consistent with the expected linear bonding of
the CO ligand to Cu (Tables 4 and 6). The structural features are quite
similar to reported TpCu(CO) complexes (Allen, 2002). The CO stretching
frequencies of (IV) and (V) [2092 cm^-1^ and 2088 cm^-1^, respectively]
provide evidence for rather weak \p-backbonding from the Cu^I^ to CO. Table 7
shows a series of CO stretching frequencies for various Tp^R1,R2^Cu(CO)
complexes. The stretching frequencies of (IV) and (V) are close to that of
Tp^Ph,Ph^Cu(CO), and only slightly below those of perfluoralkyl-substituted
species.

Although all of the compounds were crystallized in similar fashion from THF,
only (IV) displays hydrogen bonding to cocrystallized solvent molecules (Table
4). The crystal structure of (IV) reveals one molecule of tetrahydrofuran
hydrogen bonded to the N---H group of each of the carboxamide groups. Each
symmetry-unique moiety, consisting of the compound molecule and three
associated THF molecules, is isolated and does not participate in an extended
hydrogen-bonded network. In compounds (III) and (V), the compound molecules
are hydrogen bonded <i>via</i> N---H...O\\db C carboxamide groups to
symmetry-generated equivalent molecules (Tables 3 and 6). In addition,
compound (V) displays two void spaces, one of which is occupied by a
non-hydrogen-bonded THF molecule. A second larger void of 827 \%A^3^, which
appears to be vacant, suggests the potential of similar Tp ligands for
host--guest chemistry (Inokuma <i>et al.</i>, 2013; Huang <i>et al.</i>,
2010).

Conclusion

The synthesis of sterically hindered carboxamide-substituted
tris(pyrazolyl)borate ligands has been optimized. By preparing these ligands
in the presence of a high boiling solvent, the Tl^I^ salts of Tp^CONHPh,Me^
and Tp^CONH^<i>^t^</i>^-Bu,Me^ can be isolated in high yields and purity.
Their Cu^I^ carbonyl complexes can readily be obtained through the salt
metathesis of the ligand with Cu halides in the presence of CO. The CO
stretching frequencies of the latter reveal a strong electron-withdrawing
character of these ligands. The solid-state structures reveal the propensity
of these lgands to hydrogen bond. The dioxygen chemistry of first-row
transition metal complexes of these ligands is currently under investigation
in this laboratory.
;

_publ_section_acknowledgements  
;
The authors thank NSF for CRIF--MRI 1048367 and DOE for grant
DE--FG02--92ER14273 (to KHT).
;

_publ_section_references
;
Allen, F. H. (2002). <i>Acta Cryst.</i> B<b>58</b>, 380--388.

Borovik, A. S. (2005). <i>Acc. Chem. Res.</i> <b>38</b>, 54--61.

Braterman, P. S. (1975). In <i>Metal Carbonyl Spectra</i>. New York: Academic
Press.

Bruce, M. I. & Ostazews, A. P. (1972). <i>J. Chem. Soc. Chem. Commun.</i> pp.
1124--1125.

Bruker (2007). <i>APEX2</i>. Bruker AXS Inc., Madison, Wisconsin, USA.

Claramunt, R. M., Garcia, M. A., L\'opez, C., Trofimenko, S., Yap, G. P. A.,
Alkorta, I. & Elguero, J. (2005). <i>Magn. Reson. Chem.</i> <b>46</b>,
89--911.

Dias, H. V. R. & Kim, H. J. (1996). <i>Organometallics</i>, <b>15</b>, 53--74.

Dias, H. V. R., Kim, H. J., Lu, H. L., Rajeshwar, K., de Tacconi, N. R.,
Derecskei-Kovacs, A. & Marynick, D. S. (1996). <i>Organometallics</i>,
<b>15</b>, 2994--3003.

Egan, J. W. Jr, Haggerty, B. S., Rheingold, A. L., Sendlinger, S. C. &
Theopold, K. H. (1990). <i>J. Am. Chem. Soc.</i> <b>112</b>, 2445--2446.

Flack, H. D. (1983). <i>Acta Cryst.</i> A<b>39</b>, 876--881.

Huang, Z., White, P. S. & Brookhart, M. (2010). <i>Nature</i>, <b>465</b>,
598--601.

Inokuma, Y., Yoshioka, S., Ariyoshi, J., Arai, T., Hitora, Y., Takada, K.,
Matsunaga, S., Rissanen, K. & Fujita, M. (2013). <i>Nature</i>, <b>495</b>,
461--467.

Janiak, C. (1997). <i>Coord. Chem. Rev.</i> <b>163</b>, 107--215.

King, W. A., Yap, G. P. A., Incarvito, C. D., Rheingold, A. L. & Theopold, K.
H. (2009). <i>Inorg. Chim. Acta</i>, <b>362</b>, 4493--4499.

Kitajima, N., Fujisawa, K., Fujimoto, C., Moro-oka, Y., Hashimoto, S.,
Kitagawa, T., Toriume, K., Tatsumi, K. & Nakamura, A. (1992). <i>J. Am. Chem.
Soc.</i> <b>114</b>, 1277--1291.

Mealli, C., Arcus, C. S., Wilkinson, J. L., Marks, T. J. & Ibers, J. A. (1976).
<i>J. Am. Chem. Soc.</i> <b>98</b>, 711--718.

Musante, C. (1945). <i>Gazz. Chim. Ital.</i> <b>75</b>, 121--123.

Olmo, C. P., B\"ohmerle, K., Steinfeld, G. & Vahrenkamp, H. (2006). <i>Eur. J.
Inorg. Chem.</i> <b>19</b>, 3869--3877.

Pettinari, C. (2008). In <i>Scorpionates II: Chelating Borate Ligands</i>.
London: Imperial College Press.

Qin, K., Incarvito, C. D., Rheingold, A. L. & Theopold, K. H. (2002<i>a</i>).
<i>Angew. Chem. Int. Ed.</i> <b>41</b>, 2333--2335.

Qin, K., Incarvito, C. D., Rheingold, A. L. & Theopold, K. H. (2002<i>b</i>).
<i>J. Am. Chem. Soc.</i> <b>124</b>, 14008--14009.

Reinaud, O. M. & Theopold, K. H. (1994). <i>J. Am. Chem. Soc.</i> <b>116</b>,
6979--6980.

Rheingold, A. L., Incarvito, C. D. & Trofimenko, S. (2000). <i>J. Chem. Soc.
Dalton Trans.</i> pp. 1233--1234.

Sheldrick, G. M. (2008). <i>Acta Cryst.</i> A<b>64</b>, 112--122.

Taguchi, T., Gupta, R., Lassalle-Kaiser, B., Boyce, D. W., Yachandra, V. K.,
Tolman, W. B., Yano, J., Hendrich, M. P. & Borovik, A. S. (2012). <i>J. Am.
Chem. Soc.</i> <b>134</b>, 1996--1999.

Thyagarajan, S., Incarvito, C. D., Rheingold, A. L. & Theopold, K. H. (2001).
<i>J. Chem. Soc. Chem. Commun.</i> pp. 2198--2199.

Trofimenko, S. (1999). In <i>Scorpionates</i>. London: Imperial College Press.
;

_publ_section_figure_captions
;


The molecular structure of Tp^CONHPh,Me^Tl, (II), with displacement ellipsoids
drawn at the 30% probability level. H atoms on C atoms have been omitted for
clarity.

The molecular structure of Tp^CONH^<i>^t^</i>^-Bu,Me^Tl, (III), with
displacement ellipsoids drawn at the 30% probability level. H atoms on C atoms
have been omitted for clarity.

The molecular structure of Tp^CONHPh,Me^Cu(CO), (IV), with displacement
ellipsoids drawn at the 30% probability level, showing hydrogen-bond
interactions. Representative molecular assembly depicted. H atoms on C atoms
have been omitted for clarity.

The molecular structure of Tp^CONHt-Bu,Me^Cu(CO), (V), with displacement
ellipsoids drawn at the 30% probability level. A representative molecule is
depicted. H atoms on C atoms have been omitted for clarity.
;

_publ_section_exptl_prep
;
All reactions were carried out under a nitrogen atmosphere. All solvents were
dried and distilled from appropriate drying agents under an atmosphere of
nitrogen. 3-Anilinocarbonyl-5-methylpyrazole and
3-<i>tert</i>-butylaminocarbonyl-5-methylpyrazole were synthesized using a
modified procedure (Claramunt <i>et al.</i>, 2005; Musante, 1945; Rheingold
<i>et al.</i>, 2000). The pyrazole and tris(pyrazolyl)borate complexes were
manipulated as solids in a Vacuum Atmospheres dry-box under nitrogen. ^1^H NMR
spectra were obtained on Bruker AV-400 spectrometer and were referenced to the
residual ^1^H signal of the deuteriated solvent. FT--IR spectra (KBR pellets)
were recorded on a Mattson Alpha Centauri spectrometer at 4 cm^-1^ resolution.

<b>4.1 Preparation of Tp^CONHPh,Me^K, (I)</b>

In a dry box, a 250 ml Schlenk flask was charged with
3-anilinocarbonyl-5-methylpyrazole (22 g, 0.11 mol), potassium borohydride
(1.7 g, 0.031 mol) and anisole (125 ml) and fitted with a reflux condenser.
The apparatus was attached to a Schlenk line and purged with nitrogen. The
mixture was allowed to reflux over 24 h, over which time a colourless
precipitate was obtained. The mixture was filtered hot and washed with several
portions of hot anisole and dried under vacuum. The solid was placed in a 250
ml round-bottomed flask along with acetonitrile (100 ml). The mixture was
refluxed for 1 h to remove any unreacted pyrazole. The solution was filtered
and washed with several portions of hot acetonitrile followed by several
portions of diethyl ether and dried <i>in vacuo</i> (yield: 15 g, 73%).
Characterization was consistent with reported literature values (Olmo <i>et
al.</i>, 2006).

<b>4.2 Preparation of Tp^CONHPh,Me^Tl, (II)</b>

In a 500 ml round-bottomed flask equipped with a stirrer bar, (I) (5 g) was
dissolved in a mixture of THF and DMF (150 ml, 10:1 <i>v</i>/<i>v</i>). An
aqueous solution of thallium sulfate (2.5 g, 4.95 mmol) was added and the
solution was allowed to stir for 1 h, during which time a white precipitate
formed. To complete precipitation of the product, distilled water (100 ml) was
added to the solution and stirring was continued for an additional 15 min. The
product was collected on a frit and washed with copious amounts of water and
dried with gentle heating under vacuum, yielding the desired product (yield:
3.9 g, 62%; m.p. 555 K). ^1^H NMR (<i>d</i>~6~-DMSO): \d 9.96 (s, 3H, NH),
7.74 (m, 6H, phenyl H), 7.33 (m, 6H, phenyl H), 7.08 (m, 3H, phenyl H), 6.81
(s, 3H, pz H), 2.47 (s, 9H, methyl H). IR (KBr): \n 3302 (NH), 2505 (BH), 1653
(CO) cm^-1^.

<b>4.3 Preparation of Tp^CONH^</b><i><b>^t^</b></i><b>^-Bu,Me^Tl, (III)</b>

In a dry box, a 250 ml Schlenk flask was charged with
3-<i>tert</i>-butylaminocarbonyl-5-methylpyrazole (18 g, 0.1 mol), potassium
borohydride (1.5 g, 0.03 mol) and anisole (110 ml) and fitted with a reflux
condenser. The apparatus was attached to a Schlenk line and purged with
nitrogen and the mixture was allowed to reflux over 24 h. The solvent was
stripped and the residue dissolved in a minimum amount of THF. An aqueous
solution of thallium sulfate (8.5 g, 0.016 mol) was added slowly and the
mixture was stirred for 1 h. The product was extracted into methylene chloride
and dried over sodium sulfate. After the solvent was removed, the residue was
triturated with methanol until a colourless solid was obtained. The solid was
collected on a frit and washed with several portions of methanol and dried in
vacuo (yield: 13.4 g, 63%; m.p. 534 K). ^1^H NMR (CDCl~3~): \d 6.19 (s, 3H, pz
H), 2.37 (s, 9H, methyl H), 1.41 (s, 18H, <i>t</i>-butyl H). IR (KBr): \n 3327
(NH), 2530 (BH), 1649 (CO) cm^-1^.

<b>4.4 Preparation of Tp^CONHPh,Me^Cu(CO), (IV)</b>

In a dry box, an ampule equipped with a stir bar was charged with (II) (0.5 g,
0.61 mmol), CuI (0.12 g, 0.63 mmol) and THF (20 ml). The mixture was subjected
to three freeze/pump/ thaw cycles and then exposed to 1 atm of carbon
monoxide. The solution was stirred overnight. After three freeze/pump/thaw
cycles to remove excess CO, the ampule was brought back into the dry box and
the mixture filtered through a plug of Celite. After the solvent had been
concentrated to 10 ml, the solution was placed in the freezer at 243 K and
left overnight. The crystals were collected on a frit, washed with pentane (10
ml) and dried under vacuum (yield: 0.33 g, 76%; m.p. 520 K). ^1^H NMR
(CD~2~Cl~2~): \d 7.96 (s, 3H, NH), 7.58 (m, 6H, phenyl H), 7.27 (m, 6H, phenyl
H), 7.05 (m, 3H, phenyl H), 6.36 (s, 3H, pz H), 2.41 (s, 9H, methyl H). IR
(KBr): \n 3305 (NH), 2549 (BH), 2092 (Cu---CO), 1665 (L---CO) cm^-1^.

<b>4.5 Preparation of Tp^CONH^</b><i><b>^t^</b></i><b>^-Bu,Me^Cu(CO), (V)</b>

Compound (V) was synthesized in an analogous manner as (IV) using (III) (0.5 g,
0.66 mmol) and CuBr (0.104 g, 0.727 mmol) (yield: 0.35 g, 86%; m.p. 493 K).
^1^H NMR (<i>d</i>~8~-THF): \d 6.28 (s, 3H, pz H), 2.42 (s, 9H, methyl H),
1.46 (s, 18H, <i>t</i>-butyl H). IR (KBr): \n 3388 (NH), 2532 (BH), 2088
(Cu---CO), 1668 (L---CO) cm^-1^.
;

_publ_section_exptl_refinement
;
Data crystals were selected, sectioned if necessary, mounted on plastic mesh
with viscous oil, cooled to 200 K, and diffraction data were collected on a
Bruker AXS APEXII DUO using either Mo k\a radiation monochromated by graphite
[(III), (IV), and (V)] or Cu k\a radiation focused with G\"obel mirrors, (II).

Data were corrected for absorption using numerical methods for compound (II)
and multi-scan methods for the others (Bruker, 2007) and the structures were
solved using direct methods and refined using full matrix least squares based
on F^2^ with atomic scattering factors contained in the <i>SHELX</i> program
suite (Sheldrick, 2008).

Systematic absences, equivalent reflections, and unit-cell parameters were
uniquely with I4~1~/a for (II), <i>P</i>2~1~/<i>n</i> for (III), and
<i>P</i>2~1~2~1~2~1~ for (V). No symmetry higher than triclinic was observed
for (IV) and refinement in the centrosymmetric space group yielded chemically
reasonable and computationally stable results of refinement.

Two symmetry-unique but chemically identical compound molecules are located in
the asymmetric unit of (IV) and (V). Each compound molecule in (IV) has three
associated tetrahydrofuran (THF) solvent molecules each hydrogen bonded to the
carboxamide H atoms.

The threefold axis in (V) affords chirality however these crystals were
obtained from a racemic solution therefore suggesting that both enantiomers
are accessible from the spontaneous resolution during crystallization. A
severely disordered THF molecule was found in a smaller of two hydrophobic
voids formed by pyrazole arms of the Tp ligand in (V). The THF O atom was
assigned by a comparison of the isotropic parameters in the initially observed
five membered ring. Two disordered positions were found with a refined site
occupancy of 60/40 with the chemically equivalent atom positions constrained
with equal atomic displacement parameters, and with 1,2 and 1,3 distances
restrained to be equal. All THF molecules were treated with rigid-bond
anisotropic constraints. The disordered THF, clearly not hydrogen bonded, was
given `anti-bumping' restraints to avoid close approaches to the compound
molecule. In addition to distance restraints for the treatment of disordered
solvent in (V), rigid-bond and similarity restraints had to employed to ensure
physically reasonable anisotropic displacement parameters; a total of 252, 95,
195 restraints was used in the refinement of (III), (IV) and (V),
respectively.

A second larger void was found in (V) with a volume of 827 \%A^3^ centered at
(0, 3/4, 1/2) with no residual electron density that could be modeled as a
molecule.

H atoms of the carboxamide groups involved in hydrogen bond in (IV) were
located from the difference map and restrained to equal N---H distances.
Hydride ligands of the B atoms were located from the difference map. All other
H atoms were placed in calculated positions. H-atom isotropic displacement
parameters were set at either 1.2 or 1.5 (for methyl H atoms) of the
equivalent isotropic parameters of the attached atom.

During the final steps of refinement, two [for (III)], three [for (IV)] and 19
[for (V)] reflections, wherein the difference between observed and calculated
intensities were greater than 10 or the calculated structure factors were
greater than 0.80 of the maximum calculated structure factor, were considered
as outliers and were omitted. The outliers in (III) and (IV) were reflections
that were most likely affected by the beam-stop shadow. We cannot discount the
possibility of a minor secondary crystal causing the 19 outlier reflections in
(V).
;

#==============================================================================
 
data_II

_audit_update_record
;
2013-04-18 # Formatted by publCIF

2013-04-30 # Formatted by IUCr publCIF system

2013-06-17
# IUCr duplication query:
[[This is a duplication report for article xx0000.

Does this work.]]
;
  
_audit_creation_method            SHELXL97 
_chemical_name_systematic 
;
[Tris(3-anilinocarbonyl-5-methylpyrazol-1-yl-\k<i>N</i>^2^)borato]thallium(I)
;
_chemical_formula_iupac 
'[Tl (C33 H31 B N9 O3)]'
_chemical_name_common             ? 
_chemical_melting_point           ? 
_chemical_formula_moiety          
 'C33 H31 B N9 O3 Tl' 
_chemical_formula_sum 
 'C33 H31 B N9 O3 Tl' 
_chemical_formula_weight          816.85 
  
loop_ 
 _atom_type_symbol 
 _atom_type_description 
 _atom_type_scat_dispersion_real 
 _atom_type_scat_dispersion_imag 
 _atom_type_scat_source 
 'C'  'C'   0.0181   0.0091 
 'International Tables Vol C Tables 4.2.6.8 and 6.1.1.4' 
 'H'  'H'   0.0000   0.0000 
 'International Tables Vol C Tables 4.2.6.8 and 6.1.1.4' 
 'B'  'B'   0.0090   0.0039 
 'International Tables Vol C Tables 4.2.6.8 and 6.1.1.4' 
 'N'  'N'   0.0311   0.0180 
 'International Tables Vol C Tables 4.2.6.8 and 6.1.1.4' 
 'O'  'O'   0.0492   0.0322 
 'International Tables Vol C Tables 4.2.6.8 and 6.1.1.4' 
 'Tl'  'Tl'  -4.1627   8.0900 
 'International Tables Vol C Tables 4.2.6.8 and 6.1.1.4' 
  
_symmetry_cell_setting            tetragonal 
_symmetry_space_group_name_H-M    'I 41/a' 
_symmetry_space_group_name_Hall   '-I 4ad'
  
loop_ 
 _symmetry_equiv_pos_as_xyz 
 'x, y, z' 
 '-x+1/2, -y, z+1/2' 
 '-y+3/4, x+1/4, z+1/4' 
 'y+3/4, -x+3/4, z+3/4' 
 'x+1/2, y+1/2, z+1/2' 
 '-x+1, -y+1/2, z+1' 
 '-y+5/4, x+3/4, z+3/4' 
 'y+5/4, -x+5/4, z+5/4' 
 '-x, -y, -z' 
 'x-1/2, y, -z-1/2' 
 'y-3/4, -x-1/4, -z-1/4' 
 '-y-3/4, x-3/4, -z-3/4' 
 '-x+1/2, -y+1/2, -z+1/2' 
 'x, y+1/2, -z' 
 'y-1/4, -x+1/4, -z+1/4' 
 '-y-1/4, x-1/4, -z-1/4' 
  
_cell_length_a                    30.2283(4) 
_cell_length_b                    30.2283(4) 
_cell_length_c                    14.3753(3) 
_cell_angle_alpha                 90.00 
_cell_angle_beta                  90.00 
_cell_angle_gamma                 90.00 
_cell_volume                      13135.4(4) 
_cell_formula_units_Z             16 
_cell_measurement_temperature     200(2) 
_cell_measurement_reflns_used     9853 
_cell_measurement_theta_min       3.40 
_cell_measurement_theta_max       69.24 
  
_exptl_crystal_description        block 
_exptl_crystal_colour             colourless 
_exptl_crystal_size_max           0.17 
_exptl_crystal_size_mid           0.07 
_exptl_crystal_size_min           0.04 
_exptl_crystal_density_meas       ? 
_exptl_crystal_density_diffrn     1.652 
_exptl_crystal_density_method     'not measured' 
_exptl_crystal_F_000              6432 
_exptl_absorpt_coefficient_mu     9.854 
_exptl_absorpt_correction_type    numerical 
_exptl_absorpt_correction_T_min   0.2851 
_exptl_absorpt_correction_T_max   0.6766 
_exptl_absorpt_process_details    '(APEX2; Bruker, 2007)' 
  
_exptl_special_details 
? 
  
_diffrn_ambient_temperature       200(2) 
_diffrn_radiation_wavelength      1.54178 
_diffrn_radiation_type            CuK\a 
_diffrn_radiation_source          'fine-focus sealed tube' 
_diffrn_radiation_monochromator   graphite 
_diffrn_measurement_device_type   'Bruker APEXII' 
_diffrn_measurement_method        '\f and \w scans' 
_diffrn_detector_area_resol_mean  1672 
_diffrn_reflns_number             48743 
_diffrn_reflns_av_R_equivalents   0.0449 
_diffrn_reflns_av_sigmaI/netI     0.0206 
_diffrn_reflns_limit_h_min        -35 
_diffrn_reflns_limit_h_max        36 
_diffrn_reflns_limit_k_min        -34 
_diffrn_reflns_limit_k_max        35 
_diffrn_reflns_limit_l_min        -16 
_diffrn_reflns_limit_l_max        15 
_diffrn_reflns_theta_min          2.92 
_diffrn_reflns_theta_max          70.13 
_reflns_number_total              6060 
_reflns_number_gt                 5178 
_reflns_threshold_expression      I>2sigma(I) 
  
_computing_data_collection        'APEX2 (Bruker, 2007)' 
_computing_cell_refinement        'APEX2 (Bruker, 2007)' 
_computing_data_reduction         'APEX2 (Bruker, 2007)' 
_computing_structure_solution     'SHELXS97 (Sheldrick, 2008)'
_computing_structure_refinement   'SHELXL97 (Sheldrick, 2008)'
_computing_molecular_graphics     'APEX2 (Bruker, 2007)' 
_computing_publication_material   'APEX2 (Bruker, 2007)' 
  
_refine_special_details 
;
Refinement of <i>F</i>^2^ against ALL reflections. The weighted <i>R</i>-factor
<i>wR</i> and goodness of fit <i>S</i> are based on <i>F</i>^2^, conventional
<i>R</i>-factors <i>R</i> are based on <i>F</i>, with <i>F</i> set to zero for
negative <i>F</i>^2^. The threshold expression of <i>F</i>^2^ >
\s(<i>F</i>^2^) is used only for calculating <i>R</i>-factors(gt) <i>etc</i>.
and is not relevant to the choice of reflections for refinement.
<i>R</i>-factors based on <i>F</i>^2^ are statistically about twice as large
as those based on <i>F</i>, and <i>R</i>- factors based on ALL data will be
even larger.
; 
  
_refine_ls_structure_factor_coef  Fsqd 
_refine_ls_matrix_type            full 
_refine_ls_weighting_scheme       calc 
_refine_ls_weighting_details 
 'calc w=1/[\s^2^(Fo^2^)+(0.0400P)^2^+20.0316P] where P=(Fo^2^+2Fc^2^)/3' 
_atom_sites_solution_primary      direct 
_atom_sites_solution_secondary    difmap 
_atom_sites_solution_hydrogens    geom 
_refine_ls_hydrogen_treatment     mixed 
_refine_ls_extinction_method      none 
_refine_ls_extinction_coef        ? 
_refine_ls_number_reflns          6060 
_refine_ls_number_parameters      430 
_refine_ls_number_restraints      0 
_refine_ls_R_factor_all           0.0330 
_refine_ls_R_factor_gt            0.0258 
_refine_ls_wR_factor_ref          0.0694 
_refine_ls_wR_factor_gt           0.0652 
_refine_ls_goodness_of_fit_ref    1.024 
_refine_ls_restrained_S_all       1.024 
_refine_ls_shift/su_max           0.001 
_refine_ls_shift/su_mean          0.000 
  
loop_ 
 _atom_site_label 
 _atom_site_type_symbol 
 _atom_site_fract_x 
 _atom_site_fract_y 
 _atom_site_fract_z 
 _atom_site_U_iso_or_equiv 
 _atom_site_adp_type 
 _atom_site_occupancy 
 _atom_site_symmetry_multiplicity 
 _atom_site_calc_flag 
 _atom_site_refinement_flags 
 _atom_site_disorder_assembly 
 _atom_site_disorder_group 
Tl Tl 0.089262(4) 0.030051(5) 0.812419(10) 0.04232(6) Uani 1 1 d . . . 
B1 B 0.11375(12) -0.04395(13) 1.0201(3) 0.0376(8) Uani 1 1 d . . . 
H1B H 0.1198(12) -0.0642(12) 1.076(3) 0.045 Uiso 1 1 d . . . 
N1 N 0.06602(8) 0.02139(9) 0.98387(19) 0.0370(6) Uani 1 1 d . . . 
N2 N 0.07291(9) -0.01435(9) 1.03899(19) 0.0372(6) Uani 1 1 d . . . 
N3 N -0.01100(9) 0.10985(9) 1.0164(2) 0.0405(6) Uani 1 1 d . . . 
H3A H -0.0243 0.0967 1.0633 0.049 Uiso 1 1 calc R . . 
N4 N 0.15743(8) 0.01246(9) 0.93067(19) 0.0366(6) Uani 1 1 d . . . 
N5 N 0.15378(9) -0.01245(9) 1.00909(19) 0.0374(6) Uani 1 1 d . . . 
N6 N 0.24768(10) 0.08560(9) 0.8791(2) 0.0453(7) Uani 1 1 d . . . 
H6A H 0.2607 0.0802 0.9326 0.054 Uiso 1 1 calc R . . 
N7 N 0.08317(9) -0.05946(9) 0.8579(2) 0.0408(6) Uani 1 1 d . . . 
N8 N 0.11074(9) -0.07068(9) 0.92846(19) 0.0383(6) Uani 1 1 d . . . 
N9 N 0.08062(10) -0.11170(10) 0.6325(2) 0.0470(7) Uani 1 1 d . . . 
H9A H 0.1026 -0.1295 0.6471 0.056 Uiso 1 1 calc R . . 
O1 O 0.04695(8) 0.10330(8) 0.91594(18) 0.0485(6) Uani 1 1 d . . . 
O2 O 0.18486(9) 0.07146(9) 0.79540(19) 0.0525(6) Uani 1 1 d . . . 
O3 O 0.04069(11) -0.05363(11) 0.6891(2) 0.0695(9) Uani 1 1 d . . . 
C1 C 0.03617(10) 0.04657(10) 1.0272(2) 0.0350(7) Uani 1 1 d . . . 
C2 C 0.02355(10) 0.02717(11) 1.1116(2) 0.0377(7) Uani 1 1 d . . . 
H2A H 0.0028 0.0382 1.1554 0.045 Uiso 1 1 calc R . . 
C3 C 0.04755(10) -0.01125(11) 1.1175(2) 0.0376(7) Uani 1 1 d . . . 
C4 C 0.02454(10) 0.08883(11) 0.9811(2) 0.0375(7) Uani 1 1 d . . . 
C5 C -0.02387(16) 0.16795(14) 0.8996(3) 0.0638(11) Uani 1 1 d . . . 
H5A H -0.0055 0.1532 0.8559 0.077 Uiso 1 1 calc R . . 
C6 C -0.04486(19) 0.20688(16) 0.8751(4) 0.0809(15) Uani 1 1 d . . . 
H6B H -0.0405 0.2187 0.8146 0.097 Uiso 1 1 calc R . . 
C7 C -0.0712(2) 0.22821(18) 0.9349(5) 0.103(2) Uani 1 1 d . . . 
H7A H -0.0848 0.2553 0.9179 0.123 Uiso 1 1 calc R . . 
C8 C -0.0781(3) 0.2102(2) 1.0211(5) 0.131(3) Uani 1 1 d . . . 
H8A H -0.0975 0.2246 1.0635 0.157 Uiso 1 1 calc R . . 
C9 C -0.0572(2) 0.17129(17) 1.0474(4) 0.095(2) Uani 1 1 d . . . 
H9B H -0.0622 0.1592 1.1074 0.114 Uiso 1 1 calc R . . 
C10 C -0.02955(12) 0.15057(11) 0.9870(3) 0.0460(8) Uani 1 1 d . . . 
C11 C 0.04860(13) -0.04468(13) 1.1939(3) 0.0500(9) Uani 1 1 d . . . 
H11A H 0.0425 -0.0741 1.1682 0.075 Uiso 1 1 calc R . . 
H11B H 0.0261 -0.0373 1.2404 0.075 Uiso 1 1 calc R . . 
H11C H 0.0779 -0.0446 1.2231 0.075 Uiso 1 1 calc R . . 
C12 C 0.19287(11) 0.03807(11) 0.9436(2) 0.0393(7) Uani 1 1 d . . . 
C13 C 0.21216(13) 0.02943(13) 1.0291(3) 0.0552(10) Uani 1 1 d . . . 
H13A H 0.2378 0.0430 1.0543 0.066 Uiso 1 1 calc R . . 
C14 C 0.18666(13) -0.00282(13) 1.0700(3) 0.0501(9) Uani 1 1 d . . . 
C15 C 0.20721(11) 0.06687(11) 0.8662(3) 0.0409(8) Uani 1 1 d . . . 
C16 C 0.25063(15) 0.13869(13) 0.7493(3) 0.0616(11) Uani 1 1 d . . . 
H16A H 0.2194 0.1381 0.7428 0.074 Uiso 1 1 calc R . . 
C17 C 0.27599(19) 0.16527(16) 0.6925(4) 0.0779(15) Uani 1 1 d . . . 
H17A H 0.2618 0.1832 0.6473 0.093 Uiso 1 1 calc R . . 
C18 C 0.32088(19) 0.16646(17) 0.6997(4) 0.0791(16) Uani 1 1 d . . . 
H18A H 0.3378 0.1848 0.6595 0.095 Uiso 1 1 calc R . . 
C19 C 0.34159(16) 0.14077(18) 0.7659(4) 0.0757(14) Uani 1 1 d . . . 
H19A H 0.3729 0.1412 0.7710 0.091 Uiso 1 1 calc R . . 
C20 C 0.31672(14) 0.11426(15) 0.8251(3) 0.0594(10) Uani 1 1 d . . . 
H20A H 0.3310 0.0971 0.8717 0.071 Uiso 1 1 calc R . . 
C21 C 0.27125(13) 0.11286(12) 0.8162(3) 0.0485(9) Uani 1 1 d . . . 
C22 C 0.19221(18) -0.02686(18) 1.1605(3) 0.0782(15) Uani 1 1 d . . . 
H22A H 0.1924 -0.0588 1.1490 0.117 Uiso 1 1 calc R . . 
H22B H 0.1676 -0.0194 1.2020 0.117 Uiso 1 1 calc R . . 
H22C H 0.2202 -0.0180 1.1894 0.117 Uiso 1 1 calc R . . 
C23 C 0.09449(11) -0.08579(11) 0.7862(2) 0.0390(7) Uani 1 1 d . . . 
C24 C 0.12987(14) -0.11300(12) 0.8104(3) 0.0533(9) Uani 1 1 d . . . 
H24A H 0.1442 -0.1343 0.7722 0.064 Uiso 1 1 calc R . . 
C25 C 0.13952(13) -0.10260(12) 0.9008(3) 0.0508(9) Uani 1 1 d . . . 
C26 C 0.06914(12) -0.08172(12) 0.6987(3) 0.0452(8) Uani 1 1 d . . . 
C27 C 0.03142(14) -0.08942(15) 0.5052(3) 0.0576(10) Uani 1 1 d . . . 
H27A H 0.0224 -0.0637 0.5381 0.069 Uiso 1 1 calc R . . 
C28 C 0.01393(16) -0.09884(18) 0.4170(3) 0.0702(12) Uani 1 1 d . . . 
H28A H -0.0073 -0.0795 0.3900 0.084 Uiso 1 1 calc R . . 
C29 C 0.02733(17) -0.13584(18) 0.3698(3) 0.0732(13) Uani 1 1 d . . . 
H29A H 0.0154 -0.1420 0.3100 0.088 Uiso 1 1 calc R . . 
C30 C 0.05773(18) -0.16406(18) 0.4077(3) 0.0746(13) Uani 1 1 d . . . 
H30A H 0.0668 -0.1897 0.3745 0.089 Uiso 1 1 calc R . . 
C31 C 0.07520(15) -0.15520(15) 0.4942(3) 0.0614(11) Uani 1 1 d . . . 
H31A H 0.0965 -0.1747 0.5204 0.074 Uiso 1 1 calc R . . 
C32 C 0.06195(12) -0.11808(13) 0.5434(3) 0.0485(9) Uani 1 1 d . . . 
C33 C 0.17423(18) -0.12110(17) 0.9639(4) 0.0829(16) Uani 1 1 d . . . 
H33A H 0.1904 -0.0968 0.9936 0.124 Uiso 1 1 calc R . . 
H33B H 0.1949 -0.1392 0.9277 0.124 Uiso 1 1 calc R . . 
H33C H 0.1602 -0.1394 1.0118 0.124 Uiso 1 1 calc R . . 
  
loop_ 
 _atom_site_aniso_label 
 _atom_site_aniso_U_11 
 _atom_site_aniso_U_22 
 _atom_site_aniso_U_33 
 _atom_site_aniso_U_23 
 _atom_site_aniso_U_13 
 _atom_site_aniso_U_12 
Tl 0.04329(9) 0.05036(9) 0.03332(9) -0.00045(6) 0.00269(6) 0.00415(5) 
B1 0.0391(19) 0.0412(19) 0.033(2) -0.0050(16) -0.0019(15) 0.0024(15) 
N1 0.0355(13) 0.0420(14) 0.0334(15) -0.0012(12) 0.0003(11) 0.0009(11) 
N2 0.0385(14) 0.0387(14) 0.0344(15) -0.0032(11) -0.0009(11) -0.0007(11) 
N3 0.0396(14) 0.0383(14) 0.0436(17) 0.0018(12) 0.0069(12) 0.0000(11) 
N4 0.0353(13) 0.0414(14) 0.0331(15) -0.0032(11) -0.0003(11) 0.0014(11) 
N5 0.0385(14) 0.0421(14) 0.0316(15) -0.0033(12) -0.0029(11) 0.0010(11) 
N6 0.0464(16) 0.0449(15) 0.0447(18) -0.0056(13) -0.0003(13) -0.0062(12) 
N7 0.0382(14) 0.0476(16) 0.0365(16) -0.0057(13) 0.0002(12) 0.0043(12) 
N8 0.0386(14) 0.0380(14) 0.0384(16) -0.0067(12) 0.0004(12) -0.0009(11) 
N9 0.0414(15) 0.0611(19) 0.0386(17) -0.0111(14) 0.0013(13) 0.0010(13) 
O1 0.0459(13) 0.0515(14) 0.0480(15) 0.0071(11) 0.0121(11) 0.0038(11) 
O2 0.0534(15) 0.0544(15) 0.0497(16) 0.0048(12) -0.0079(12) -0.0088(12) 
O3 0.078(2) 0.086(2) 0.0451(17) -0.0140(15) -0.0100(14) 0.0327(17) 
C1 0.0317(15) 0.0386(16) 0.0347(17) -0.0057(13) 0.0006(13) -0.0029(12) 
C2 0.0339(15) 0.0446(17) 0.0346(18) -0.0052(14) 0.0047(13) -0.0045(13) 
C3 0.0367(16) 0.0459(18) 0.0301(17) -0.0053(14) -0.0010(13) -0.0071(13) 
C4 0.0346(16) 0.0417(17) 0.0362(18) -0.0054(14) 0.0012(14) -0.0050(13) 
C5 0.083(3) 0.057(2) 0.051(3) 0.000(2) 0.001(2) 0.018(2) 
C6 0.103(4) 0.068(3) 0.072(3) 0.017(3) -0.002(3) 0.022(3) 
C7 0.127(5) 0.068(3) 0.114(5) 0.028(3) 0.025(4) 0.051(3) 
C8 0.175(7) 0.088(4) 0.131(6) 0.033(4) 0.075(5) 0.077(5) 
C9 0.125(5) 0.071(3) 0.089(4) 0.026(3) 0.054(4) 0.047(3) 
C10 0.0448(18) 0.0401(18) 0.053(2) -0.0010(16) 0.0052(16) 0.0007(14) 
C11 0.058(2) 0.053(2) 0.039(2) 0.0032(16) 0.0040(17) -0.0027(17) 
C12 0.0379(16) 0.0415(17) 0.0386(19) -0.0101(14) -0.0024(14) -0.0010(13) 
C13 0.054(2) 0.061(2) 0.051(2) -0.0039(19) -0.0168(18) -0.0173(18) 
C14 0.053(2) 0.056(2) 0.041(2) -0.0011(17) -0.0110(17) -0.0068(17) 
C15 0.0428(17) 0.0364(16) 0.044(2) -0.0092(14) -0.0011(15) -0.0015(13) 
C16 0.067(3) 0.052(2) 0.066(3) 0.000(2) 0.002(2) -0.0060(19) 
C17 0.105(4) 0.061(3) 0.067(4) 0.006(2) 0.003(3) -0.021(3) 
C18 0.100(4) 0.076(3) 0.062(3) -0.010(3) 0.023(3) -0.042(3) 
C19 0.065(3) 0.094(4) 0.068(3) -0.021(3) 0.014(2) -0.036(3) 
C20 0.056(2) 0.068(3) 0.054(3) -0.013(2) 0.0016(19) -0.0166(19) 
C21 0.055(2) 0.0455(19) 0.045(2) -0.0150(16) 0.0093(17) -0.0112(16) 
C22 0.089(3) 0.093(4) 0.052(3) 0.018(2) -0.033(2) -0.028(3) 
C23 0.0400(17) 0.0407(17) 0.0363(18) -0.0070(14) 0.0041(14) -0.0048(13) 
C24 0.066(2) 0.0453(19) 0.048(2) -0.0132(17) -0.0027(19) 0.0138(17) 
C25 0.058(2) 0.0454(19) 0.049(2) -0.0097(17) -0.0047(18) 0.0113(16) 
C26 0.0434(18) 0.055(2) 0.037(2) -0.0076(16) 0.0030(15) -0.0015(16) 
C27 0.062(2) 0.072(3) 0.039(2) -0.0052(19) 0.0038(18) -0.002(2) 
C28 0.066(3) 0.098(4) 0.046(3) 0.004(2) -0.001(2) 0.001(2) 
C29 0.083(3) 0.103(4) 0.033(2) -0.010(2) 0.000(2) -0.019(3) 
C30 0.087(3) 0.087(3) 0.049(3) -0.021(2) -0.002(2) -0.001(3) 
C31 0.071(3) 0.068(3) 0.045(2) -0.014(2) -0.001(2) 0.002(2) 
C32 0.0443(19) 0.064(2) 0.037(2) -0.0040(17) 0.0067(15) -0.0097(16) 
C33 0.098(4) 0.082(3) 0.068(3) -0.023(3) -0.024(3) 0.047(3) 
  
_geom_special_details 
;
All e.s.d.'s (except the e.s.d. in the dihedral angle between two l.s. planes)
are estimated using the full covariance matrix. The cell e.s.d.'s are taken
into account individually in the estimation of e.s.d.'s in distances, angles
and torsion angles; correlations between e.s.d.'s in cell parameters are only
used when they are defined by crystal symmetry. An approximate (isotropic)
treatment of cell e.s.d.'s is used for estimating e.s.d.'s involving l.s.
planes.
; 
  
loop_ 
 _geom_bond_atom_site_label_1 
 _geom_bond_atom_site_label_2 
 _geom_bond_distance 
 _geom_bond_site_symmetry_2 
 _geom_bond_publ_flag 
Tl N1 2.576(3) . y 
Tl N4 2.724(3) . y 
Tl N7 2.790(3) . y 
B1 N5 1.548(5) . ? 
B1 N8 1.548(4) . ? 
B1 N2 1.549(4) . ? 
B1 H1B 1.03(4) . ? 
N1 C1 1.335(4) . ? 
N1 N2 1.356(4) . ? 
N2 C3 1.368(4) . ? 
N3 C4 1.347(4) . ? 
N3 C10 1.417(4) . ? 
N3 H3A 0.8800 . ? 
N4 C12 1.335(4) . ? 
N4 N5 1.360(4) . ? 
N5 C14 1.356(4) . ? 
N6 C15 1.361(4) . ? 
N6 C21 1.416(5) . ? 
N6 H6A 0.8800 . ? 
N7 C23 1.346(4) . ? 
N7 N8 1.356(4) . ? 
N8 C25 1.359(4) . ? 
N9 C26 1.359(4) . ? 
N9 C32 1.413(5) . ? 
N9 H9A 0.8800 . ? 
O1 C4 1.236(4) . ? 
O2 C15 1.230(4) . ? 
O3 C26 1.217(5) . ? 
C1 C2 1.400(5) . ? 
C1 C4 1.482(5) . ? 
C2 C3 1.372(5) . ? 
C2 H2A 0.9500 . ? 
C3 C11 1.492(5) . ? 
C5 C10 1.373(6) . ? 
C5 C6 1.382(6) . ? 
C5 H5A 0.9500 . ? 
C6 C7 1.337(7) . ? 
C6 H6B 0.9500 . ? 
C7 C8 1.369(8) . ? 
C7 H7A 0.9500 . ? 
C8 C9 1.388(7) . ? 
C8 H8A 0.9500 . ? 
C9 C10 1.358(6) . ? 
C9 H9B 0.9500 . ? 
C11 H11A 0.9800 . ? 
C11 H11B 0.9800 . ? 
C11 H11C 0.9800 . ? 
C12 C13 1.384(5) . ? 
C12 C15 1.478(5) . ? 
C13 C14 1.375(5) . ? 
C13 H13A 0.9500 . ? 
C14 C22 1.500(6) . ? 
C16 C17 1.378(6) . ? 
C16 C21 1.386(6) . ? 
C16 H16A 0.9500 . ? 
C17 C18 1.361(8) . ? 
C17 H17A 0.9500 . ? 
C18 C19 1.378(8) . ? 
C18 H18A 0.9500 . ? 
C19 C20 1.390(6) . ? 
C19 H19A 0.9500 . ? 
C20 C21 1.381(6) . ? 
C20 H20A 0.9500 . ? 
C22 H22A 0.9800 . ? 
C22 H22B 0.9800 . ? 
C22 H22C 0.9800 . ? 
C23 C24 1.393(5) . ? 
C23 C26 1.478(5) . ? 
C24 C25 1.368(5) . ? 
C24 H24A 0.9500 . ? 
C25 C33 1.496(6) . ? 
C27 C32 1.380(6) . ? 
C27 C28 1.403(6) . ? 
C27 H27A 0.9500 . ? 
C28 C29 1.369(7) . ? 
C28 H28A 0.9500 . ? 
C29 C30 1.367(7) . ? 
C29 H29A 0.9500 . ? 
C30 C31 1.377(6) . ? 
C30 H30A 0.9500 . ? 
C31 C32 1.385(5) . ? 
C31 H31A 0.9500 . ? 
C33 H33A 0.9800 . ? 
C33 H33B 0.9800 . ? 
C33 H33C 0.9800 . ? 
  
loop_ 
 _geom_angle_atom_site_label_1 
 _geom_angle_atom_site_label_2 
 _geom_angle_atom_site_label_3 
 _geom_angle 
 _geom_angle_site_symmetry_1 
 _geom_angle_site_symmetry_3 
 _geom_angle_publ_flag 
N1 Tl N4 65.76(8) . . y 
N1 Tl N7 70.08(8) . . y 
N4 Tl N7 73.40(8) . . y 
N5 B1 N8 106.3(3) . . ? 
N5 B1 N2 106.6(3) . . ? 
N8 B1 N2 113.8(3) . . ? 
N5 B1 H1B 108(2) . . ? 
N8 B1 H1B 111(2) . . ? 
N2 B1 H1B 110(2) . . ? 
C1 N1 N2 106.6(3) . . ? 
C1 N1 Tl 125.0(2) . . ? 
N2 N1 Tl 126.73(19) . . ? 
N1 N2 C3 110.0(3) . . ? 
N1 N2 B1 118.7(3) . . ? 
C3 N2 B1 129.1(3) . . ? 
C4 N3 C10 127.8(3) . . ? 
C4 N3 H3A 116.1 . . ? 
C10 N3 H3A 116.1 . . ? 
C12 N4 N5 105.7(3) . . ? 
C12 N4 Tl 125.5(2) . . ? 
N5 N4 Tl 124.33(18) . . ? 
C14 N5 N4 110.9(3) . . ? 
C14 N5 B1 129.7(3) . . ? 
N4 N5 B1 119.3(3) . . ? 
C15 N6 C21 127.4(3) . . ? 
C15 N6 H6A 116.3 . . ? 
C21 N6 H6A 116.3 . . ? 
C23 N7 N8 105.6(3) . . ? 
C23 N7 Tl 112.2(2) . . ? 
N8 N7 Tl 112.17(19) . . ? 
N7 N8 C25 110.6(3) . . ? 
N7 N8 B1 122.8(3) . . ? 
C25 N8 B1 125.6(3) . . ? 
C26 N9 C32 128.6(3) . . ? 
C26 N9 H9A 115.7 . . ? 
C32 N9 H9A 115.7 . . ? 
N1 C1 C2 110.5(3) . . ? 
N1 C1 C4 116.3(3) . . ? 
C2 C1 C4 133.2(3) . . ? 
C3 C2 C1 105.3(3) . . ? 
C3 C2 H2A 127.3 . . ? 
C1 C2 H2A 127.3 . . ? 
N2 C3 C2 107.6(3) . . ? 
N2 C3 C11 123.3(3) . . ? 
C2 C3 C11 129.1(3) . . ? 
O1 C4 N3 123.7(3) . . ? 
O1 C4 C1 121.0(3) . . ? 
N3 C4 C1 115.3(3) . . ? 
C10 C5 C6 120.1(4) . . ? 
C10 C5 H5A 120.0 . . ? 
C6 C5 H5A 120.0 . . ? 
C7 C6 C5 121.3(5) . . ? 
C7 C6 H6B 119.3 . . ? 
C5 C6 H6B 119.3 . . ? 
C6 C7 C8 118.8(5) . . ? 
C6 C7 H7A 120.6 . . ? 
C8 C7 H7A 120.6 . . ? 
C7 C8 C9 120.9(5) . . ? 
C7 C8 H8A 119.6 . . ? 
C9 C8 H8A 119.6 . . ? 
C10 C9 C8 119.8(5) . . ? 
C10 C9 H9B 120.1 . . ? 
C8 C9 H9B 120.1 . . ? 
C9 C10 C5 119.0(4) . . ? 
C9 C10 N3 117.0(4) . . ? 
C5 C10 N3 123.7(3) . . ? 
C3 C11 H11A 109.5 . . ? 
C3 C11 H11B 109.5 . . ? 
H11A C11 H11B 109.5 . . ? 
C3 C11 H11C 109.5 . . ? 
H11A C11 H11C 109.5 . . ? 
H11B C11 H11C 109.5 . . ? 
N4 C12 C13 110.6(3) . . ? 
N4 C12 C15 118.2(3) . . ? 
C13 C12 C15 131.0(3) . . ? 
C14 C13 C12 106.1(3) . . ? 
C14 C13 H13A 127.0 . . ? 
C12 C13 H13A 127.0 . . ? 
N5 C14 C13 106.7(3) . . ? 
N5 C14 C22 122.5(3) . . ? 
C13 C14 C22 130.7(4) . . ? 
O2 C15 N6 124.0(3) . . ? 
O2 C15 C12 121.9(3) . . ? 
N6 C15 C12 114.0(3) . . ? 
C17 C16 C21 119.3(4) . . ? 
C17 C16 H16A 120.4 . . ? 
C21 C16 H16A 120.4 . . ? 
C18 C17 C16 121.7(5) . . ? 
C18 C17 H17A 119.2 . . ? 
C16 C17 H17A 119.2 . . ? 
C17 C18 C19 119.3(4) . . ? 
C17 C18 H18A 120.3 . . ? 
C19 C18 H18A 120.3 . . ? 
C18 C19 C20 120.1(5) . . ? 
C18 C19 H19A 119.9 . . ? 
C20 C19 H19A 119.9 . . ? 
C21 C20 C19 119.9(5) . . ? 
C21 C20 H20A 120.0 . . ? 
C19 C20 H20A 120.0 . . ? 
C20 C21 C16 119.7(4) . . ? 
C20 C21 N6 117.3(4) . . ? 
C16 C21 N6 123.0(4) . . ? 
C14 C22 H22A 109.5 . . ? 
C14 C22 H22B 109.5 . . ? 
H22A C22 H22B 109.5 . . ? 
C14 C22 H22C 109.5 . . ? 
H22A C22 H22C 109.5 . . ? 
H22B C22 H22C 109.5 . . ? 
N7 C23 C24 110.7(3) . . ? 
N7 C23 C26 118.1(3) . . ? 
C24 C23 C26 131.2(3) . . ? 
C25 C24 C23 105.3(3) . . ? 
C25 C24 H24A 127.3 . . ? 
C23 C24 H24A 127.3 . . ? 
N8 C25 C24 107.7(3) . . ? 
N8 C25 C33 122.5(4) . . ? 
C24 C25 C33 129.8(4) . . ? 
O3 C26 N9 124.5(3) . . ? 
O3 C26 C23 121.4(3) . . ? 
N9 C26 C23 114.1(3) . . ? 
C32 C27 C28 119.0(4) . . ? 
C32 C27 H27A 120.5 . . ? 
C28 C27 H27A 120.5 . . ? 
C29 C28 C27 120.1(5) . . ? 
C29 C28 H28A 119.9 . . ? 
C27 C28 H28A 119.9 . . ? 
C30 C29 C28 120.7(4) . . ? 
C30 C29 H29A 119.6 . . ? 
C28 C29 H29A 119.6 . . ? 
C29 C30 C31 119.8(5) . . ? 
C29 C30 H30A 120.1 . . ? 
C31 C30 H30A 120.1 . . ? 
C30 C31 C32 120.5(5) . . ? 
C30 C31 H31A 119.7 . . ? 
C32 C31 H31A 119.7 . . ? 
C27 C32 C31 119.9(4) . . ? 
C27 C32 N9 122.9(4) . . ? 
C31 C32 N9 117.2(4) . . ? 
C25 C33 H33A 109.5 . . ? 
C25 C33 H33B 109.5 . . ? 
H33A C33 H33B 109.5 . . ? 
C25 C33 H33C 109.5 . . ? 
H33A C33 H33C 109.5 . . ? 
H33B C33 H33C 109.5 . . ? 
  
_diffrn_measured_fraction_theta_max    0.972 
_diffrn_reflns_theta_full              67.00 
_diffrn_measured_fraction_theta_full   0.984 
_refine_diff_density_max    0.633 
_refine_diff_density_min   -0.450 
_refine_diff_density_rms    0.080 


_iucr_refine_instructions_details
;
TITL kla0195 in I4(1)/a
CELL  1.54178  30.2283  30.2283  14.3753   90.000   90.000   90.000
ZERR   16.00   0.0004   0.0004   0.0003   0.000   0.000   0.000
LATT 2
SYMM 1/2-X, -Y, 1/2+Z
SYMM 3/4-Y, 1/4+X, 1/4+Z
SYMM 3/4+Y, 3/4-X, 3/4+Z
SFAC C  H  B  N  O  Tl
UNIT 528  496  16  144  48  16
REM Solution 1  R1  0.094,  Alpha= 0.0449  in I4(1)/a
REM C34 N9 O3 Tl
L.S. 10
BOND $H
FMAP 2
PLAN 20
SIZE 0.043 0.07 0.17
ACTA 134
TEMP -73.140
WGHT    0.040000   20.031603
FVAR       0.02723
TL    6    0.089262    0.030051    0.812419    11.00000    0.04329    0.05036 =
         0.03332   -0.00045    0.00269    0.00415
B1    3    0.113755   -0.043947    1.020085    11.00000    0.03906    0.04122 =
         0.03270   -0.00496   -0.00188    0.00232
H1B   2    0.119780   -0.064269    1.076108    11.00000   -1.20000
N1    4    0.066016    0.021393    0.983858    11.00000    0.03540    0.04117 =
         0.03380   -0.00224    0.00031   -0.00006
N2    4    0.072906   -0.014349    1.038977    11.00000    0.03713    0.04058 =
         0.03379   -0.00330   -0.00050   -0.00134
N3    4   -0.010995    0.109851    1.016351    11.00000    0.03958    0.03838 =
         0.04357    0.00187    0.00685   -0.00005
AFIX  43
H3A   2   -0.024290    0.096707    1.063275    11.00000   -1.20000
AFIX   0
N4    4    0.157431    0.012468    0.930673    11.00000    0.03532    0.04140 =
         0.03311   -0.00321   -0.00035    0.00135
N5    4    0.153779   -0.012454    1.009088    11.00000    0.03840    0.04213 =
         0.03167   -0.00325   -0.00287    0.00103
N6    4    0.247686    0.085603    0.879099    11.00000    0.04636    0.04493 =
         0.04476   -0.00565   -0.00034   -0.00630
AFIX  43
H6A   2    0.260704    0.080150    0.932640    11.00000   -1.20000
AFIX   0
N7    4    0.083178   -0.059455    0.857880    11.00000    0.03822    0.04768 =
         0.03637   -0.00566    0.00025    0.00421
N8    4    0.110732   -0.070678    0.928470    11.00000    0.03855    0.03791 =
         0.03840   -0.00672    0.00034   -0.00086
N9    4    0.080618   -0.111707    0.632551    11.00000    0.04142    0.06110 =
         0.03853   -0.01114    0.00127    0.00102
AFIX  43
H9A   2    0.102581   -0.129513    0.647133    11.00000   -1.20000
AFIX   0
O1    5    0.046943    0.103305    0.915938    11.00000    0.04597    0.05156 =
         0.04803    0.00708    0.01210    0.00377
O2    5    0.184857    0.071462    0.795398    11.00000    0.05344    0.05447 =
         0.04973    0.00477   -0.00789   -0.00878
O3    5    0.040685   -0.053625    0.689064    11.00000    0.07753    0.08596 =
         0.04508   -0.01401   -0.00994    0.03273
C1    1    0.036167    0.046580    1.027199    11.00000    0.03314    0.04011 =
         0.03361   -0.00485    0.00104   -0.00262
C2    1    0.023544    0.027181    1.111601    11.00000    0.03458    0.04311 =
         0.03383   -0.00488    0.00282   -0.00416
AFIX  43
H2A   2    0.002786    0.038263    1.155410    11.00000   -1.20000
AFIX   0
C3    1    0.047564   -0.011266    1.117531    11.00000    0.03620    0.04337 =
         0.03245   -0.00481   -0.00017   -0.00519
C4    1    0.024543    0.088822    0.981075    11.00000    0.03453    0.04171 =
         0.03621   -0.00536    0.00117   -0.00502
C5    1   -0.023875    0.167957    0.899609    11.00000    0.08323    0.05728 =
         0.05065   -0.00028    0.00066    0.01822
AFIX  43
H5A   2   -0.005503    0.153213    0.855865    11.00000   -1.20000
AFIX   0
C6    1   -0.044864    0.206889    0.875149    11.00000    0.10312    0.06775 =
         0.07195    0.01689   -0.00177    0.02210
AFIX  43
H6B   2   -0.040505    0.218721    0.814616    11.00000   -1.20000
AFIX   0
C7    1   -0.071160    0.228218    0.934923    11.00000    0.12717    0.06747 =
         0.11390    0.02835    0.02451    0.05096
AFIX  43
H7A   2   -0.084779    0.255365    0.917933    11.00000   -1.20000
AFIX   0
C8    1   -0.078109    0.210235    1.021063    11.00000    0.17465    0.08795 =
         0.13087    0.03335    0.07506    0.07699
AFIX  43
H8A   2   -0.097499    0.224587    1.063419    11.00000   -1.20000
AFIX   0
C9    1   -0.057201    0.171297    1.047390    11.00000    0.12489    0.07074 =
         0.08934    0.02627    0.05386    0.04705
AFIX  43
H9B   2   -0.062228    0.159189    1.107452    11.00000   -1.20000
AFIX   0
C10   1   -0.029545    0.150572    0.987022    11.00000    0.04473    0.04011 =
         0.05296   -0.00102    0.00514    0.00074
C11   1    0.048597   -0.044675    1.193849    11.00000    0.05800    0.05300 =
         0.03896    0.00337    0.00398   -0.00259
AFIX 137
H11A  2    0.042500   -0.074083    1.168182    11.00000   -1.50000
H11B  2    0.026093   -0.037284    1.240396    11.00000   -1.50000
H11C  2    0.077878   -0.044609    1.223117    11.00000   -1.50000
AFIX   0
C12   1    0.192871    0.038069    0.943640    11.00000    0.03791    0.04157 =
         0.03850   -0.01017   -0.00241   -0.00100
C13   1    0.212158    0.029424    1.029063    11.00000    0.05395    0.06083 =
         0.05088   -0.00391   -0.01680   -0.01723
AFIX  43
H13A  2    0.237823    0.043018    1.054313    11.00000   -1.20000
AFIX   0
C14   1    0.186654   -0.002816    1.069961    11.00000    0.05271    0.05653 =
         0.04110   -0.00110   -0.01099   -0.00680
C15   1    0.207204    0.066868    0.866240    11.00000    0.04286    0.03640 =
         0.04363   -0.00926   -0.00106   -0.00152
C16   1    0.250640    0.138686    0.749344    11.00000    0.06674    0.05147 =
         0.06649    0.00021    0.00229   -0.00598
AFIX  43
H16A  2    0.219375    0.138076    0.742757    11.00000   -1.20000
AFIX   0
C17   1    0.275990    0.165268    0.692531    11.00000    0.10521    0.06160 =
         0.06714    0.00634    0.00291   -0.02130
AFIX  43
H17A  2    0.261778    0.183213    0.647251    11.00000   -1.20000
AFIX   0
C18   1    0.320875    0.166451    0.699677    11.00000    0.09990    0.07543 =
         0.06193   -0.00994    0.02297   -0.04236
AFIX  43
H18A  2    0.337757    0.184797    0.659441    11.00000   -1.20000
AFIX   0
C19   1    0.341592    0.140778    0.765844    11.00000    0.06509    0.09401 =
         0.06820   -0.02062    0.01436   -0.03608
AFIX  43
H19A  2    0.372923    0.141191    0.770962    11.00000   -1.20000
AFIX   0
C20   1    0.316715    0.114261    0.825153    11.00000    0.05616    0.06850 =
         0.05350   -0.01348    0.00152   -0.01655
AFIX  43
H20A  2    0.330976    0.097142    0.871759    11.00000   -1.20000
AFIX   0
C21   1    0.271244    0.112862    0.816170    11.00000    0.05508    0.04548 =
         0.04507   -0.01501    0.00923   -0.01128
C22   1    0.192212   -0.026855    1.160459    11.00000    0.08945    0.09328 =
         0.05170    0.01777   -0.03251   -0.02836
AFIX 137
H22A  2    0.192447   -0.058817    1.149048    11.00000   -1.50000
H22B  2    0.167621   -0.019432    1.202050    11.00000   -1.50000
H22C  2    0.220202   -0.018026    1.189421    11.00000   -1.50000
AFIX   0
C23   1    0.094492   -0.085792    0.786249    11.00000    0.04001    0.04078 =
         0.03619   -0.00701    0.00414   -0.00486
C24   1    0.129867   -0.113001    0.810389    11.00000    0.06642    0.04531 =
         0.04821   -0.01319   -0.00256    0.01373
AFIX  43
H24A  2    0.144231   -0.134259    0.772223    11.00000   -1.20000
AFIX   0
C25   1    0.139525   -0.102593    0.900777    11.00000    0.05788    0.04543 =
         0.04900   -0.00979   -0.00482    0.01134
C26   1    0.069138   -0.081723    0.698708    11.00000    0.04347    0.05519 =
         0.03699   -0.00760    0.00304   -0.00143
C27   1    0.031429   -0.089423    0.505196    11.00000    0.06174    0.07224 =
         0.03888   -0.00515    0.00379   -0.00239
AFIX  43
H27A  2    0.022395   -0.063707    0.538094    11.00000   -1.20000
AFIX   0
C28   1    0.013938   -0.098843    0.416997    11.00000    0.06613    0.09778 =
         0.04637    0.00353   -0.00110    0.00058
AFIX  43
H28A  2   -0.007246   -0.079511    0.389970    11.00000   -1.20000
AFIX   0
C29   1    0.027325   -0.135832    0.369774    11.00000    0.08327    0.10307 =
         0.03344   -0.01049   -0.00024   -0.01870
AFIX  43
H29A  2    0.015362   -0.141955    0.310036    11.00000   -1.20000
AFIX   0
C30   1    0.057733   -0.164050    0.407697    11.00000    0.08731    0.08727 =
         0.04931   -0.02119   -0.00210   -0.00073
AFIX  43
H30A  2    0.066784   -0.189668    0.374486    11.00000   -1.20000
AFIX   0
C31   1    0.075197   -0.155198    0.494242    11.00000    0.07112    0.06845 =
         0.04478   -0.01438   -0.00149    0.00214
AFIX  43
H31A  2    0.096482   -0.174693    0.520389    11.00000   -1.20000
AFIX   0
C32   1    0.061948   -0.118074    0.543422    11.00000    0.04434    0.06425 =
         0.03699   -0.00401    0.00668   -0.00966
C33   1    0.174234   -0.121104    0.963898    11.00000    0.09839    0.08190 =
         0.06828   -0.02277   -0.02440    0.04736
AFIX 137
H33A  2    0.190399   -0.096801    0.993567    11.00000   -1.50000
H33B  2    0.194861   -0.139242    0.927684    11.00000   -1.50000
H33C  2    0.160182   -0.139398    1.011800    11.00000   -1.50000
 
HKLF 4
 
REM  kla0195 in I4(1)/a
REM R1 =  0.0258 for   5178 Fo > 4sig(Fo)  and  0.0330 for all   6060 data
REM    430 parameters refined using     30 restraints
 
END  
     
WGHT      0.0363     24.0419 
REM Highest difference peak  0.632,  deepest hole -0.450,  1-sigma level  0.080
Q1    1   0.0915  0.0529  0.7816  11.00000  0.05    0.63
Q2    1   0.0633  0.0297  0.7886  11.00000  0.05    0.56
Q3    1   0.0897  0.0345  0.7481  11.00000  0.05    0.55
Q4    1   0.0896  0.0310  0.8765  11.00000  0.05    0.53
Q5    1  -0.0309  0.1897  1.0626  11.00000  0.05    0.52
Q6    1  -0.0453  0.2327  1.0303  11.00000  0.05    0.45
Q7    1   0.1043  0.0082  0.7967  11.00000  0.05    0.44
Q8    1   0.0627  0.0295  0.8361  11.00000  0.05    0.43
Q9    1   0.1438 -0.1373  0.9840  11.00000  0.05    0.37
Q10   1   0.0723 -0.0374  0.8280  11.00000  0.05    0.37
Q11   1   0.1169 -0.1084  0.9289  11.00000  0.05    0.35
Q12   1   0.1190  0.0304  0.8489  11.00000  0.05    0.35
Q13   1   0.0688  0.0190  0.9364  11.00000  0.05    0.34
Q14   1   0.1013 -0.0401  0.8302  11.00000  0.05    0.34
Q15   1   0.0395  0.1207  0.9380  11.00000  0.05    0.32
Q16   1   0.0509  0.0805  0.8613  11.00000  0.05    0.31
Q17   1   0.2581  0.0993  1.0458  11.00000  0.05    0.31
Q18   1   0.1141 -0.0619  0.9743  11.00000  0.05    0.31
Q19   1   0.0253  0.0422  1.0729  11.00000  0.05    0.31
Q20   1   0.1099 -0.1235  0.8444  11.00000  0.05    0.30
;
_vrf_PLAT241_compound2
;
PROBLEM: Check High Ueq as Compared to Neighbors for C8
RESPONSE: Atom C8 is part of one of the phenyl rings.
Atom identity consistent with synthesis and spectroscopy.
;

 
data_III
  
_audit_creation_method            SHELXL97 
_chemical_name_systematic 
;\
[Tris(3-<i>tert</i>-butylaminocarbonyl-5-methylpyrazol-1-yl-\
\k<i>N</i>^2^)borato]thallium(I)
;
_chemical_formula_iupac 
'[Tl (C27 H43 B N9 O3)]'
_chemical_name_common             ? 
_chemical_melting_point           ? 
_chemical_formula_moiety          
 'C27 H43 B N9 O3 Tl'
_chemical_formula_sum 
 'C27 H43 B N9 O3 Tl' 
_chemical_formula_weight          756.88 
  
loop_ 
 _atom_type_symbol 
 _atom_type_description 
 _atom_type_scat_dispersion_real 
 _atom_type_scat_dispersion_imag 
 _atom_type_scat_source 
 'C'  'C'   0.0033   0.0016 
 'International Tables Vol C Tables 4.2.6.8 and 6.1.1.4' 
 'H'  'H'   0.0000   0.0000 
 'International Tables Vol C Tables 4.2.6.8 and 6.1.1.4' 
 'N'  'N'   0.0061   0.0033 
 'International Tables Vol C Tables 4.2.6.8 and 6.1.1.4' 
 'O'  'O'   0.0106   0.0060 
 'International Tables Vol C Tables 4.2.6.8 and 6.1.1.4' 
 'B'  'B'   0.0013   0.0007 
 'International Tables Vol C Tables 4.2.6.8 and 6.1.1.4' 
 'Tl'  'Tl'  -2.8358   9.6688 
 'International Tables Vol C Tables 4.2.6.8 and 6.1.1.4' 
  
_symmetry_cell_setting            monoclinic 
_symmetry_space_group_name_H-M    'P 21/n' 
_symmetry_space_group_name_Hall   '-P 2yn'
  
loop_ 
 _symmetry_equiv_pos_as_xyz 
 'x, y, z' 
 '-x+1/2, y+1/2, -z+1/2' 
 '-x, -y, -z' 
 'x-1/2, -y-1/2, z-1/2' 
  
_cell_length_a                    11.6038(5) 
_cell_length_b                    12.7036(6) 
_cell_length_c                    23.0839(10) 
_cell_angle_alpha                 90.00 
_cell_angle_beta                  95.2010(8) 
_cell_angle_gamma                 90.00 
_cell_volume                      3388.8(3) 
_cell_formula_units_Z             4 
_cell_measurement_temperature     200(2) 
_cell_measurement_reflns_used     4944 
_cell_measurement_theta_min       2.39 
_cell_measurement_theta_max       19.30 
  
_exptl_crystal_description        block 
_exptl_crystal_colour             colourless 
_exptl_crystal_size_max           0.41 
_exptl_crystal_size_mid           0.30 
_exptl_crystal_size_min           0.20 
_exptl_crystal_density_meas       ? 
_exptl_crystal_density_diffrn     1.484 
_exptl_crystal_density_method     'not measured' 
_exptl_crystal_F_000              1512 
_exptl_absorpt_coefficient_mu     4.806 
_exptl_absorpt_correction_type    multi-scan 
_exptl_absorpt_correction_T_min   0.2433 
_exptl_absorpt_correction_T_max   0.4450 
_exptl_absorpt_process_details    '(APEX2; Bruker, 2007)' 
  
_exptl_special_details 
;
Data collection is performed with four batch runs at \f = 0.00 \% (600 frames),
at \f = 90.00 \% (600 frames), at \f = 180 \% (600 frames) and at \f = 270 \%
(600 frames). Frame width = 0.30 \\& in \w.
; 
  
_diffrn_ambient_temperature       200(2) 
_diffrn_radiation_wavelength      0.71073 
_diffrn_radiation_type            MoK\a 
_diffrn_radiation_source          'fine-focus sealed tube' 
_diffrn_radiation_monochromator   graphite 
_diffrn_measurement_device_type   'Bruker APEXII' 
_diffrn_measurement_method        '\f and \w scans' 
_diffrn_detector_area_resol_mean  1672 
_diffrn_reflns_number             49674 
_diffrn_reflns_av_R_equivalents   0.0705 
_diffrn_reflns_av_sigmaI/netI     0.0614 
_diffrn_reflns_limit_h_min        -15 
_diffrn_reflns_limit_h_max        16 
_diffrn_reflns_limit_k_min        -17 
_diffrn_reflns_limit_k_max        17 
_diffrn_reflns_limit_l_min        -32 
_diffrn_reflns_limit_l_max        32 
_diffrn_reflns_theta_min          1.77 
_diffrn_reflns_theta_max          30.86 
_reflns_number_total              10043 
_reflns_number_gt                 6330 
_reflns_threshold_expression      I>2sigma(I) 
  
_computing_data_collection        'APEX2 (Bruker, 2007)' 
_computing_cell_refinement        'APEX2 (Bruker, 2007)' 
_computing_data_reduction         'APEX2 (Bruker, 2007)' 
_computing_structure_solution     'SHELXS97 (Sheldrick, 2008)'
_computing_structure_refinement   'SHELXL97 (Sheldrick, 2008)'
_computing_molecular_graphics     'APEX2 (Bruker, 2007)' 
_computing_publication_material   'APEX2 (Bruker, 2007)' 
  
_refine_special_details 
;
Refinement of <i>F</i>^2^ against ALL reflections. The weighted <i>R</i>-factor
<i>wR</i> and goodness of fit <i>S</i> are based on <i>F</i>^2^, conventional
<i>R</i>-factors <i>R</i> are based on <i>F</i>, with <i>F</i> set to zero for
negative <i>F</i>^2^. The threshold expression of <i>F</i>^2^ >
\s(<i>F</i>^2^) is used only for calculating <i>R</i>-factors(gt) <i>etc</i>.
and is not relevant to the choice of reflections for refinement.
<i>R</i>-factors based on <i>F</i>^2^ are statistically about twice as large
as those based on <i>F</i>, and <i>R</i>- factors based on ALL data will be
even larger.
; 
  
_refine_ls_structure_factor_coef  Fsqd 
_refine_ls_matrix_type            full 
_refine_ls_weighting_scheme       calc 
_refine_ls_weighting_details 
 'calc w=1/[\s^2^(Fo^2^)+(0.0191P)^2^] where P=(Fo^2^+2Fc^2^)/3' 
_atom_sites_solution_primary      direct 
_atom_sites_solution_secondary    difmap 
_atom_sites_solution_hydrogens    geom 
_refine_ls_hydrogen_treatment     mixed 
_refine_ls_extinction_method      none 
_refine_ls_extinction_coef        ? 
_refine_ls_number_reflns          10043 
_refine_ls_number_parameters      394 
_refine_ls_number_restraints      252 
_refine_ls_R_factor_all           0.0823 
_refine_ls_R_factor_gt            0.0384 
_refine_ls_wR_factor_ref          0.0676 
_refine_ls_wR_factor_gt           0.0576 
_refine_ls_goodness_of_fit_ref    1.010 
_refine_ls_restrained_S_all       0.999 
_refine_ls_shift/su_max           0.001 
_refine_ls_shift/su_mean          0.000 
  
loop_ 
 _atom_site_label 
 _atom_site_type_symbol 
 _atom_site_fract_x 
 _atom_site_fract_y 
 _atom_site_fract_z 
 _atom_site_U_iso_or_equiv 
 _atom_site_adp_type 
 _atom_site_occupancy 
 _atom_site_symmetry_multiplicity 
 _atom_site_calc_flag 
 _atom_site_refinement_flags 
 _atom_site_disorder_assembly 
 _atom_site_disorder_group 
Tl Tl 0.019559(12) 0.828989(11) 0.124026(6) 0.04374(5) Uani 1 1 d . . . 
B1 B 0.2032(3) 0.6584(3) 0.03652(16) 0.0322(8) Uani 1 1 d U . . 
H1B H 0.257(3) 0.606(2) 0.0107(13) 0.039 Uiso 1 1 d . . . 
O1 O -0.1274(2) 0.97600(18) -0.07725(10) 0.0460(6) Uani 1 1 d U . . 
O2 O 0.4165(2) 0.8962(2) 0.24147(11) 0.0540(7) Uani 1 1 d U . . 
O3 O -0.1574(3) 0.6632(2) 0.15868(15) 0.0881(11) Uani 1 1 d U . . 
N1 N 0.0394(2) 0.7883(2) 0.00885(11) 0.0334(6) Uani 1 1 d U . . 
N2 N 0.1376(2) 0.73936(19) -0.00432(11) 0.0312(6) Uani 1 1 d U . . 
N3 N -0.1807(3) 0.8709(2) -0.00499(14) 0.0431(8) Uani 1 1 d U . . 
H3N H -0.159(3) 0.827(3) 0.0162(16) 0.052 Uiso 1 1 d . . . 
N4 N 0.2514(2) 0.79366(19) 0.11689(11) 0.0333(6) Uani 1 1 d U . . 
N5 N 0.2874(2) 0.7150(2) 0.08247(11) 0.0328(6) Uani 1 1 d U . . 
N6 N 0.2594(3) 0.9729(3) 0.19216(12) 0.0453(8) Uani 1 1 d U . . 
H6N H 0.228(3) 0.981(3) 0.1637(15) 0.054 Uiso 1 1 d . . . 
N7 N 0.0424(2) 0.6325(2) 0.10199(12) 0.0384(7) Uani 1 1 d U . . 
N8 N 0.1169(2) 0.5898(2) 0.06660(11) 0.0344(6) Uani 1 1 d U . . 
N9 N -0.1339(3) 0.4992(2) 0.19701(14) 0.0475(8) Uani 1 1 d U . . 
H9N H -0.083(3) 0.458(3) 0.2027(16) 0.057 Uiso 1 1 d . . . 
C1 C 0.0057(3) 0.8483(2) -0.03755(14) 0.0325(7) Uani 1 1 d U . . 
C2 C 0.0821(3) 0.8384(3) -0.08026(14) 0.0406(8) Uani 1 1 d U . . 
H2A H 0.0779 0.8728 -0.1169 0.049 Uiso 1 1 calc R . . 
C3 C 0.1650(3) 0.7683(3) -0.05828(14) 0.0381(8) Uani 1 1 d U . . 
C4 C 0.2682(3) 0.7267(3) -0.08481(16) 0.0595(11) Uani 1 1 d U . . 
H4A H 0.2629 0.6499 -0.0877 0.089 Uiso 1 1 calc R . . 
H4B H 0.3385 0.7462 -0.0605 0.089 Uiso 1 1 calc R . . 
H4C H 0.2709 0.7568 -0.1238 0.089 Uiso 1 1 calc R . . 
C5 C -0.1058(3) 0.9056(3) -0.04150(15) 0.0361(8) Uani 1 1 d U . . 
C6 C -0.3040(3) 0.8996(3) -0.00303(18) 0.0492(10) Uani 1 1 d U . . 
C7 C -0.3459(4) 0.8432(4) 0.0475(3) 0.115(2) Uani 1 1 d U . . 
H7A H -0.3032 0.8680 0.0835 0.172 Uiso 1 1 calc R . . 
H7B H -0.3336 0.7674 0.0433 0.172 Uiso 1 1 calc R . . 
H7C H -0.4287 0.8571 0.0491 0.172 Uiso 1 1 calc R . . 
C8 C -0.3171(4) 1.0172(3) 0.0018(2) 0.0895(17) Uani 1 1 d U . . 
H8A H -0.2826 1.0408 0.0399 0.134 Uiso 1 1 calc R . . 
H8B H -0.3994 1.0357 -0.0025 0.134 Uiso 1 1 calc R . . 
H8C H -0.2778 1.0517 -0.0289 0.134 Uiso 1 1 calc R . . 
C9 C -0.3705(4) 0.8612(4) -0.0590(2) 0.103(2) Uani 1 1 d U . . 
H9A H -0.3666 0.7843 -0.0608 0.154 Uiso 1 1 calc R . . 
H9B H -0.3361 0.8914 -0.0925 0.154 Uiso 1 1 calc R . . 
H9C H -0.4515 0.8834 -0.0597 0.154 Uiso 1 1 calc R . . 
C10 C 0.3443(3) 0.8186(2) 0.15288(14) 0.0348(8) Uani 1 1 d U . . 
C11 C 0.4389(3) 0.7569(3) 0.14243(15) 0.0397(8) Uani 1 1 d U . . 
H11A H 0.5140 0.7590 0.1625 0.048 Uiso 1 1 calc R . . 
C12 C 0.4010(3) 0.6923(2) 0.09694(15) 0.0376(8) Uani 1 1 d U . . 
C13 C 0.4651(3) 0.6068(3) 0.06842(18) 0.0603(11) Uani 1 1 d U . . 
H13A H 0.4620 0.6201 0.0265 0.090 Uiso 1 1 calc R . . 
H13B H 0.4292 0.5387 0.0753 0.090 Uiso 1 1 calc R . . 
H13C H 0.5460 0.6059 0.0849 0.090 Uiso 1 1 calc R . . 
C14 C 0.3437(3) 0.8999(3) 0.19951(15) 0.0406(8) Uani 1 1 d U . . 
C15 C 0.2368(3) 1.0570(3) 0.23400(16) 0.0556(11) Uani 1 1 d U . . 
C16 C 0.2145(4) 1.0084(4) 0.29185(17) 0.0814(15) Uani 1 1 d U . . 
H16A H 0.1502 0.9584 0.2861 0.122 Uiso 1 1 calc R . . 
H16B H 0.1946 1.0639 0.3187 0.122 Uiso 1 1 calc R . . 
H16C H 0.2842 0.9716 0.3082 0.122 Uiso 1 1 calc R . . 
C17 C 0.1295(4) 1.1166(4) 0.20908(19) 0.0776(15) Uani 1 1 d U . . 
H17A H 0.0646 1.0675 0.2023 0.116 Uiso 1 1 calc R . . 
H17B H 0.1450 1.1498 0.1722 0.116 Uiso 1 1 calc R . . 
H17C H 0.1100 1.1710 0.2367 0.116 Uiso 1 1 calc R . . 
C18 C 0.3393(4) 1.1333(3) 0.24134(19) 0.0761(14) Uani 1 1 d U . . 
H18A H 0.4103 1.0940 0.2531 0.114 Uiso 1 1 calc R . . 
H18B H 0.3258 1.1854 0.2713 0.114 Uiso 1 1 calc R . . 
H18C H 0.3474 1.1692 0.2044 0.114 Uiso 1 1 calc R . . 
C19 C -0.0178(3) 0.5527(3) 0.12226(15) 0.0422(9) Uani 1 1 d U . . 
C20 C 0.0198(3) 0.4572(3) 0.10058(15) 0.0424(9) Uani 1 1 d U . . 
H20A H -0.0073 0.3887 0.1087 0.051 Uiso 1 1 calc R . . 
C21 C 0.1040(3) 0.4833(2) 0.06523(14) 0.0379(8) Uani 1 1 d U . . 
C22 C 0.1724(4) 0.4122(3) 0.03011(18) 0.0609(12) Uani 1 1 d U . . 
H22A H 0.2552 0.4238 0.0406 0.091 Uiso 1 1 calc R . . 
H22B H 0.1540 0.4273 -0.0113 0.091 Uiso 1 1 calc R . . 
H22C H 0.1530 0.3388 0.0380 0.091 Uiso 1 1 calc R . . 
C23 C -0.1086(3) 0.5782(3) 0.16117(16) 0.0496(10) Uani 1 1 d U . . 
C24 C -0.2191(3) 0.5001(3) 0.24013(18) 0.0606(11) Uani 1 1 d U . . 
C25 C -0.1815(6) 0.5755(4) 0.2880(2) 0.133(3) Uani 1 1 d U . . 
H25A H -0.1747 0.6463 0.2718 0.200 Uiso 1 1 calc R . . 
H25B H -0.1063 0.5534 0.3069 0.200 Uiso 1 1 calc R . . 
H25C H -0.2389 0.5761 0.3167 0.200 Uiso 1 1 calc R . . 
C26 C -0.3366(4) 0.5287(5) 0.2105(3) 0.133(3) Uani 1 1 d U . . 
H26A H -0.3371 0.6032 0.1994 0.199 Uiso 1 1 calc R . . 
H26B H -0.3962 0.5161 0.2372 0.199 Uiso 1 1 calc R . . 
H26C H -0.3527 0.4853 0.1756 0.199 Uiso 1 1 calc R . . 
C27 C -0.2234(4) 0.3897(4) 0.2646(2) 0.0893(17) Uani 1 1 d U . . 
H27A H -0.1463 0.3695 0.2819 0.134 Uiso 1 1 calc R . . 
H27B H -0.2485 0.3404 0.2333 0.134 Uiso 1 1 calc R . . 
H27C H -0.2783 0.3876 0.2945 0.134 Uiso 1 1 calc R . . 
  
loop_ 
 _atom_site_aniso_label 
 _atom_site_aniso_U_11 
 _atom_site_aniso_U_22 
 _atom_site_aniso_U_33 
 _atom_site_aniso_U_23 
 _atom_site_aniso_U_13 
 _atom_site_aniso_U_12 
Tl 0.04755(9) 0.04034(8) 0.04461(9) -0.00392(7) 0.01116(6) 0.00383(7) 
B1 0.038(2) 0.029(2) 0.0287(19) -0.0004(16) 0.0019(16) 0.0028(17) 
O1 0.0483(15) 0.0426(15) 0.0460(15) 0.0165(12) -0.0013(12) 0.0054(12) 
O2 0.0524(17) 0.0584(17) 0.0474(16) -0.0117(13) -0.0168(14) 0.0094(13) 
O3 0.097(3) 0.0558(19) 0.120(3) 0.0380(19) 0.053(2) 0.0328(18) 
N1 0.0359(17) 0.0331(15) 0.0316(15) 0.0010(12) 0.0050(13) 0.0036(12) 
N2 0.0335(16) 0.0306(15) 0.0293(15) 0.0000(12) 0.0011(12) 0.0013(12) 
N3 0.0419(19) 0.0379(18) 0.049(2) 0.0081(14) 0.0036(16) 0.0051(14) 
N4 0.0366(17) 0.0294(14) 0.0334(15) -0.0005(12) 0.0008(13) 0.0032(12) 
N5 0.0359(17) 0.0293(14) 0.0327(15) -0.0003(12) 0.0006(13) 0.0029(12) 
N6 0.051(2) 0.0494(19) 0.0327(17) -0.0123(15) -0.0096(15) 0.0065(16) 
N7 0.0444(18) 0.0320(15) 0.0391(17) 0.0012(13) 0.0058(14) 0.0014(13) 
N8 0.0410(17) 0.0280(15) 0.0336(16) -0.0020(12) -0.0003(13) 0.0004(12) 
N9 0.044(2) 0.047(2) 0.0521(19) 0.0143(16) 0.0102(16) 0.0019(15) 
C1 0.0345(19) 0.0287(18) 0.0339(18) 0.0016(14) 0.0009(15) -0.0029(14) 
C2 0.038(2) 0.052(2) 0.0314(18) 0.0113(17) 0.0011(15) -0.0024(17) 
C3 0.037(2) 0.044(2) 0.0339(19) -0.0004(16) 0.0023(16) -0.0012(16) 
C4 0.057(3) 0.076(3) 0.049(2) 0.018(2) 0.022(2) 0.016(2) 
C5 0.036(2) 0.0348(19) 0.038(2) 0.0011(16) 0.0025(16) -0.0046(15) 
C6 0.036(2) 0.046(2) 0.066(3) 0.001(2) 0.010(2) 0.0046(17) 
C7 0.068(4) 0.154(6) 0.131(5) 0.073(4) 0.052(3) 0.026(3) 
C8 0.055(3) 0.058(3) 0.158(5) -0.019(3) 0.028(3) 0.009(2) 
C9 0.045(3) 0.127(5) 0.134(5) -0.056(4) -0.006(3) -0.005(3) 
C10 0.0354(19) 0.0338(19) 0.0345(18) 0.0038(15) -0.0013(15) -0.0036(15) 
C11 0.033(2) 0.040(2) 0.044(2) -0.0015(17) -0.0037(16) 0.0020(16) 
C12 0.036(2) 0.037(2) 0.040(2) 0.0027(15) 0.0041(16) 0.0024(15) 
C13 0.043(2) 0.059(3) 0.077(3) -0.016(2) -0.003(2) 0.014(2) 
C14 0.043(2) 0.038(2) 0.040(2) -0.0027(17) -0.0005(18) -0.0009(17) 
C15 0.053(3) 0.066(3) 0.045(2) -0.025(2) -0.012(2) 0.014(2) 
C16 0.082(4) 0.115(4) 0.047(3) -0.010(3) 0.009(2) 0.022(3) 
C17 0.074(3) 0.084(3) 0.069(3) -0.032(3) -0.019(3) 0.034(3) 
C18 0.084(4) 0.064(3) 0.076(3) -0.031(2) -0.014(3) 0.004(3) 
C19 0.044(2) 0.039(2) 0.041(2) 0.0077(17) -0.0036(18) -0.0045(16) 
C20 0.050(2) 0.0240(18) 0.052(2) -0.0002(16) -0.0051(19) -0.0049(16) 
C21 0.046(2) 0.0257(17) 0.041(2) -0.0018(15) -0.0035(17) -0.0035(15) 
C22 0.074(3) 0.034(2) 0.076(3) -0.014(2) 0.013(2) -0.001(2) 
C23 0.050(2) 0.050(2) 0.050(2) 0.0107(19) 0.006(2) -0.0042(19) 
C24 0.054(3) 0.069(3) 0.062(3) 0.016(2) 0.022(2) 0.002(2) 
C25 0.191(7) 0.112(5) 0.109(5) -0.039(4) 0.078(5) -0.050(5) 
C26 0.054(3) 0.199(7) 0.151(6) 0.093(5) 0.042(4) 0.038(4) 
C27 0.086(4) 0.083(3) 0.106(4) 0.043(3) 0.047(3) -0.006(3) 
  
_geom_special_details 
;
All e.s.d.'s (except the e.s.d. in the dihedral angle between two l.s. planes)
are estimated using the full covariance matrix. The cell e.s.d.'s are taken
into account individually in the estimation of e.s.d.'s in distances, angles
and torsion angles; correlations between e.s.d.'s in cell parameters are only
used when they are defined by crystal symmetry. An approximate (isotropic)
treatment of cell e.s.d.'s is used for estimating e.s.d.'s involving l.s.
planes.
; 
  
loop_ 
 _geom_bond_atom_site_label_1 
 _geom_bond_atom_site_label_2 
 _geom_bond_distance 
 _geom_bond_site_symmetry_2 
 _geom_bond_publ_flag 

Tl N1 2.739(3) . y 
Tl N4 2.747(3) . y 
Tl N7 2.566(3) . y 
B1 N8 1.539(4) . ? 
B1 N5 1.552(4) . ? 
B1 N2 1.548(4) . ? 
B1 H1B 1.12(3) . ? 
O1 C5 1.228(4) . ? 
O2 C14 1.227(4) . ? 
O3 C23 1.219(4) . ? 
N1 C1 1.343(4) . ? 
N1 N2 1.357(3) . ? 
N2 C3 1.364(4) . ? 
N3 C5 1.339(4) . ? 
N3 C6 1.482(4) . ? 
N3 H3N 0.77(3) . ? 
N4 C10 1.338(4) . ? 
N4 N5 1.366(3) . ? 
N5 C12 1.361(4) . ? 
N6 C14 1.347(4) . ? 
N6 C15 1.480(4) . ? 
N6 H6N 0.73(3) . ? 
N7 C19 1.339(4) . ? 
N7 N8 1.355(4) . ? 
N8 C21 1.362(4) . ? 
N9 C23 1.350(4) . ? 
N9 C24 1.465(5) . ? 
N9 H9N 0.79(3) . ? 
C1 C2 1.390(4) . ? 
C1 C5 1.481(4) . ? 
C2 C3 1.373(4) . ? 
C2 H2A 0.9500 . ? 
C3 C4 1.490(5) . ? 
C4 H4A 0.9800 . ? 
C4 H4B 0.9800 . ? 
C4 H4C 0.9800 . ? 
C6 C7 1.489(6) . ? 
C6 C8 1.507(5) . ? 
C6 C9 1.524(6) . ? 
C7 H7A 0.9800 . ? 
C7 H7B 0.9800 . ? 
C7 H7C 0.9800 . ? 
C8 H8A 0.9800 . ? 
C8 H8B 0.9800 . ? 
C8 H8C 0.9800 . ? 
C9 H9A 0.9800 . ? 
C9 H9B 0.9800 . ? 
C9 H9C 0.9800 . ? 
C10 C11 1.388(4) . ? 
C10 C14 1.492(4) . ? 
C11 C12 1.374(4) . ? 
C11 H11A 0.9500 . ? 
C12 C13 1.501(5) . ? 
C13 H13A 0.9800 . ? 
C13 H13B 0.9800 . ? 
C13 H13C 0.9800 . ? 
C15 C16 1.515(5) . ? 
C15 C17 1.525(5) . ? 
C15 C18 1.531(5) . ? 
C16 H16A 0.9800 . ? 
C16 H16B 0.9800 . ? 
C16 H16C 0.9800 . ? 
C17 H17A 0.9800 . ? 
C17 H17B 0.9800 . ? 
C17 H17C 0.9800 . ? 
C18 H18A 0.9800 . ? 
C18 H18B 0.9800 . ? 
C18 H18C 0.9800 . ? 
C19 C20 1.397(5) . ? 
C19 C23 1.481(5) . ? 
C20 C21 1.369(5) . ? 
C20 H20A 0.9500 . ? 
C21 C22 1.489(5) . ? 
C22 H22A 0.9800 . ? 
C22 H22B 0.9800 . ? 
C22 H22C 0.9800 . ? 
C24 C25 1.498(6) . ? 
C24 C26 1.515(6) . ? 
C24 C27 1.515(6) . ? 
C25 H25A 0.9800 . ? 
C25 H25B 0.9800 . ? 
C25 H25C 0.9800 . ? 
C26 H26A 0.9800 . ? 
C26 H26B 0.9800 . ? 
C26 H26C 0.9800 . ? 
C27 H27A 0.9800 . ? 
C27 H27B 0.9800 . ? 
C27 H27C 0.9800 . ? 
  
loop_ 
 _geom_angle_atom_site_label_1 
 _geom_angle_atom_site_label_2 
 _geom_angle_atom_site_label_3 
 _geom_angle 
 _geom_angle_site_symmetry_1 
 _geom_angle_site_symmetry_3 
 _geom_angle_publ_flag 
N7 Tl N1 66.71(8) . . y 
N7 Tl N4 73.15(8) . . y 
N1 Tl N4 75.05(8) . . y 
N8 B1 N5 110.4(3) . . ? 
N8 B1 N2 110.3(3) . . ? 
N5 B1 N2 110.6(3) . . ? 
N8 B1 H1B 108.5(15) . . ? 
N5 B1 H1B 107.2(15) . . ? 
N2 B1 H1B 109.8(15) . . ? 
C1 N1 N2 105.7(3) . . ? 
C1 N1 Tl 128.5(2) . . ? 
N2 N1 Tl 116.75(18) . . ? 
N1 N2 C3 110.5(3) . . ? 
N1 N2 B1 123.0(3) . . ? 
C3 N2 B1 126.4(3) . . ? 
C5 N3 C6 128.5(3) . . ? 
C5 N3 H3N 116(3) . . ? 
C6 N3 H3N 115(3) . . ? 
C10 N4 N5 105.3(3) . . ? 
C10 N4 Tl 131.5(2) . . ? 
N5 N4 Tl 120.47(19) . . ? 
C12 N5 N4 110.7(3) . . ? 
C12 N5 B1 127.2(3) . . ? 
N4 N5 B1 122.0(3) . . ? 
C14 N6 C15 125.8(3) . . ? 
C14 N6 H6N 121(3) . . ? 
C15 N6 H6N 113(3) . . ? 
C19 N7 N8 106.8(3) . . ? 
C19 N7 Tl 126.9(2) . . ? 
N8 N7 Tl 126.2(2) . . ? 
N7 N8 C21 109.7(3) . . ? 
N7 N8 B1 121.5(3) . . ? 
C21 N8 B1 128.8(3) . . ? 
C23 N9 C24 127.5(3) . . ? 
C23 N9 H9N 113(3) . . ? 
C24 N9 H9N 115(3) . . ? 
N1 C1 C2 110.9(3) . . ? 
N1 C1 C5 121.1(3) . . ? 
C2 C1 C5 127.7(3) . . ? 
C3 C2 C1 105.5(3) . . ? 
C3 C2 H2A 127.3 . . ? 
C1 C2 H2A 127.3 . . ? 
N2 C3 C2 107.4(3) . . ? 
N2 C3 C4 122.8(3) . . ? 
C2 C3 C4 129.8(3) . . ? 
C3 C4 H4A 109.5 . . ? 
C3 C4 H4B 109.5 . . ? 
H4A C4 H4B 109.5 . . ? 
C3 C4 H4C 109.5 . . ? 
H4A C4 H4C 109.5 . . ? 
H4B C4 H4C 109.5 . . ? 
O1 C5 N3 123.9(3) . . ? 
O1 C5 C1 121.6(3) . . ? 
N3 C5 C1 114.4(3) . . ? 
N3 C6 C7 106.9(3) . . ? 
N3 C6 C8 110.5(3) . . ? 
C7 C6 C8 112.2(4) . . ? 
N3 C6 C9 108.1(3) . . ? 
C7 C6 C9 109.6(4) . . ? 
C8 C6 C9 109.5(4) . . ? 
C6 C7 H7A 109.5 . . ? 
C6 C7 H7B 109.5 . . ? 
H7A C7 H7B 109.5 . . ? 
C6 C7 H7C 109.5 . . ? 
H7A C7 H7C 109.5 . . ? 
H7B C7 H7C 109.5 . . ? 
C6 C8 H8A 109.5 . . ? 
C6 C8 H8B 109.5 . . ? 
H8A C8 H8B 109.5 . . ? 
C6 C8 H8C 109.5 . . ? 
H8A C8 H8C 109.5 . . ? 
H8B C8 H8C 109.5 . . ? 
C6 C9 H9A 109.5 . . ? 
C6 C9 H9B 109.5 . . ? 
H9A C9 H9B 109.5 . . ? 
C6 C9 H9C 109.5 . . ? 
H9A C9 H9C 109.5 . . ? 
H9B C9 H9C 109.5 . . ? 
N4 C10 C11 111.3(3) . . ? 
N4 C10 C14 123.8(3) . . ? 
C11 C10 C14 124.9(3) . . ? 
C12 C11 C10 105.5(3) . . ? 
C12 C11 H11A 127.2 . . ? 
C10 C11 H11A 127.2 . . ? 
N5 C12 C11 107.2(3) . . ? 
N5 C12 C13 123.6(3) . . ? 
C11 C12 C13 129.1(3) . . ? 
C12 C13 H13A 109.5 . . ? 
C12 C13 H13B 109.5 . . ? 
H13A C13 H13B 109.5 . . ? 
C12 C13 H13C 109.5 . . ? 
H13A C13 H13C 109.5 . . ? 
H13B C13 H13C 109.5 . . ? 
O2 C14 N6 124.4(3) . . ? 
O2 C14 C10 119.7(3) . . ? 
N6 C14 C10 115.9(3) . . ? 
N6 C15 C16 109.6(3) . . ? 
N6 C15 C17 107.4(3) . . ? 
C16 C15 C17 109.6(4) . . ? 
N6 C15 C18 110.3(3) . . ? 
C16 C15 C18 110.7(3) . . ? 
C17 C15 C18 109.1(4) . . ? 
C15 C16 H16A 109.5 . . ? 
C15 C16 H16B 109.5 . . ? 
H16A C16 H16B 109.5 . . ? 
C15 C16 H16C 109.5 . . ? 
H16A C16 H16C 109.5 . . ? 
H16B C16 H16C 109.5 . . ? 
C15 C17 H17A 109.5 . . ? 
C15 C17 H17B 109.5 . . ? 
H17A C17 H17B 109.5 . . ? 
C15 C17 H17C 109.5 . . ? 
H17A C17 H17C 109.5 . . ? 
H17B C17 H17C 109.5 . . ? 
C15 C18 H18A 109.5 . . ? 
C15 C18 H18B 109.5 . . ? 
H18A C18 H18B 109.5 . . ? 
C15 C18 H18C 109.5 . . ? 
H18A C18 H18C 109.5 . . ? 
H18B C18 H18C 109.5 . . ? 
N7 C19 C20 110.0(3) . . ? 
N7 C19 C23 117.9(3) . . ? 
C20 C19 C23 132.0(3) . . ? 
C21 C20 C19 105.5(3) . . ? 
C21 C20 H20A 127.3 . . ? 
C19 C20 H20A 127.3 . . ? 
N8 C21 C20 108.0(3) . . ? 
N8 C21 C22 123.5(3) . . ? 
C20 C21 C22 128.5(3) . . ? 
C21 C22 H22A 109.5 . . ? 
C21 C22 H22B 109.5 . . ? 
H22A C22 H22B 109.5 . . ? 
C21 C22 H22C 109.5 . . ? 
H22A C22 H22C 109.5 . . ? 
H22B C22 H22C 109.5 . . ? 
O3 C23 N9 124.2(4) . . ? 
O3 C23 C19 121.2(3) . . ? 
N9 C23 C19 114.5(3) . . ? 
N9 C24 C25 109.7(4) . . ? 
N9 C24 C26 109.3(4) . . ? 
C25 C24 C26 111.7(5) . . ? 
N9 C24 C27 107.1(3) . . ? 
C25 C24 C27 109.5(4) . . ? 
C26 C24 C27 109.4(4) . . ? 
C24 C25 H25A 109.5 . . ? 
C24 C25 H25B 109.5 . . ? 
H25A C25 H25B 109.5 . . ? 
C24 C25 H25C 109.5 . . ? 
H25A C25 H25C 109.5 . . ? 
H25B C25 H25C 109.5 . . ? 
C24 C26 H26A 109.5 . . ? 
C24 C26 H26B 109.5 . . ? 
H26A C26 H26B 109.5 . . ? 
C24 C26 H26C 109.5 . . ? 
H26A C26 H26C 109.5 . . ? 
H26B C26 H26C 109.5 . . ? 
C24 C27 H27A 109.5 . . ? 
C24 C27 H27B 109.5 . . ? 
H27A C27 H27B 109.5 . . ? 
C24 C27 H27C 109.5 . . ? 
H27A C27 H27C 109.5 . . ? 
H27B C27 H27C 109.5 . . ? 
  
loop_ 
 _geom_torsion_atom_site_label_1 
 _geom_torsion_atom_site_label_2 
 _geom_torsion_atom_site_label_3 
 _geom_torsion_atom_site_label_4 
 _geom_torsion 
 _geom_torsion_site_symmetry_1 
 _geom_torsion_site_symmetry_2 
 _geom_torsion_site_symmetry_3 
 _geom_torsion_site_symmetry_4 
 _geom_torsion_publ_flag 
N7 Tl N1 C1 158.4(3) . . . . ? 
N4 Tl N1 C1 -123.8(3) . . . . ? 
N7 Tl N1 N2 -59.5(2) . . . . ? 
N4 Tl N1 N2 18.23(19) . . . . ? 
C1 N1 N2 C3 -0.1(3) . . . . ? 
Tl N1 N2 C3 -150.1(2) . . . . ? 
C1 N1 N2 B1 -177.4(3) . . . . ? 
Tl N1 N2 B1 32.6(3) . . . . ? 
N8 B1 N2 N1 37.4(4) . . . . ? 
N5 B1 N2 N1 -85.0(4) . . . . ? 
N8 B1 N2 C3 -139.5(3) . . . . ? 
N5 B1 N2 C3 98.1(4) . . . . ? 
N7 Tl N4 C10 -129.3(3) . . . . ? 
N1 Tl N4 C10 161.0(3) . . . . ? 
N7 Tl N4 N5 28.8(2) . . . . ? 
N1 Tl N4 N5 -40.9(2) . . . . ? 
C10 N4 N5 C12 -0.3(3) . . . . ? 
Tl N4 N5 C12 -163.4(2) . . . . ? 
C10 N4 N5 B1 176.4(3) . . . . ? 
Tl N4 N5 B1 13.3(3) . . . . ? 
N8 B1 N5 C12 106.7(4) . . . . ? 
N2 B1 N5 C12 -131.0(3) . . . . ? 
N8 B1 N5 N4 -69.4(4) . . . . ? 
N2 B1 N5 N4 52.9(4) . . . . ? 
N1 Tl N7 C19 -135.8(3) . . . . ? 
N4 Tl N7 C19 143.6(3) . . . . ? 
N1 Tl N7 N8 43.1(2) . . . . ? 
N4 Tl N7 N8 -37.6(2) . . . . ? 
C19 N7 N8 C21 -0.6(4) . . . . ? 
Tl N7 N8 C21 -179.6(2) . . . . ? 
C19 N7 N8 B1 -178.3(3) . . . . ? 
Tl N7 N8 B1 2.7(4) . . . . ? 
N5 B1 N8 N7 61.3(4) . . . . ? 
N2 B1 N8 N7 -61.2(4) . . . . ? 
N5 B1 N8 C21 -115.9(3) . . . . ? 
N2 B1 N8 C21 121.6(3) . . . . ? 
N2 N1 C1 C2 -0.2(3) . . . . ? 
Tl N1 C1 C2 145.0(2) . . . . ? 
N2 N1 C1 C5 173.7(3) . . . . ? 
Tl N1 C1 C5 -41.0(4) . . . . ? 
N1 C1 C2 C3 0.4(4) . . . . ? 
C5 C1 C2 C3 -173.1(3) . . . . ? 
N1 N2 C3 C2 0.3(4) . . . . ? 
B1 N2 C3 C2 177.5(3) . . . . ? 
N1 N2 C3 C4 -179.6(3) . . . . ? 
B1 N2 C3 C4 -2.4(5) . . . . ? 
C1 C2 C3 N2 -0.4(4) . . . . ? 
C1 C2 C3 C4 179.4(4) . . . . ? 
C6 N3 C5 O1 6.5(6) . . . . ? 
C6 N3 C5 C1 -170.7(3) . . . . ? 
N1 C1 C5 O1 165.4(3) . . . . ? 
C2 C1 C5 O1 -21.8(5) . . . . ? 
N1 C1 C5 N3 -17.3(4) . . . . ? 
C2 C1 C5 N3 155.6(3) . . . . ? 
C5 N3 C6 C7 -177.1(4) . . . . ? 
C5 N3 C6 C8 -54.8(5) . . . . ? 
C5 N3 C6 C9 65.0(5) . . . . ? 
N5 N4 C10 C11 -0.4(4) . . . . ? 
Tl N4 C10 C11 160.1(2) . . . . ? 
N5 N4 C10 C14 -178.3(3) . . . . ? 
Tl N4 C10 C14 -17.8(5) . . . . ? 
N4 C10 C11 C12 0.9(4) . . . . ? 
C14 C10 C11 C12 178.8(3) . . . . ? 
N4 N5 C12 C11 0.9(4) . . . . ? 
B1 N5 C12 C11 -175.6(3) . . . . ? 
N4 N5 C12 C13 177.9(3) . . . . ? 
B1 N5 C12 C13 1.4(5) . . . . ? 
C10 C11 C12 N5 -1.1(4) . . . . ? 
C10 C11 C12 C13 -177.9(4) . . . . ? 
C15 N6 C14 O2 -3.1(6) . . . . ? 
C15 N6 C14 C10 176.0(3) . . . . ? 
N4 C10 C14 O2 156.8(3) . . . . ? 
C11 C10 C14 O2 -20.8(5) . . . . ? 
N4 C10 C14 N6 -22.3(5) . . . . ? 
C11 C10 C14 N6 160.1(3) . . . . ? 
C14 N6 C15 C16 -57.7(5) . . . . ? 
C14 N6 C15 C17 -176.8(4) . . . . ? 
C14 N6 C15 C18 64.4(5) . . . . ? 
N8 N7 C19 C20 1.1(4) . . . . ? 
Tl N7 C19 C20 -179.8(2) . . . . ? 
N8 N7 C19 C23 -178.3(3) . . . . ? 
Tl N7 C19 C23 0.7(4) . . . . ? 
N7 C19 C20 C21 -1.3(4) . . . . ? 
C23 C19 C20 C21 178.1(4) . . . . ? 
N7 N8 C21 C20 -0.2(4) . . . . ? 
B1 N8 C21 C20 177.3(3) . . . . ? 
N7 N8 C21 C22 179.6(3) . . . . ? 
B1 N8 C21 C22 -2.9(5) . . . . ? 
C19 C20 C21 N8 0.9(4) . . . . ? 
C19 C20 C21 C22 -178.9(3) . . . . ? 
C24 N9 C23 O3 -2.2(7) . . . . ? 
C24 N9 C23 C19 -180.0(3) . . . . ? 
N7 C19 C23 O3 26.6(6) . . . . ? 
C20 C19 C23 O3 -152.8(4) . . . . ? 
N7 C19 C23 N9 -155.6(3) . . . . ? 
C20 C19 C23 N9 25.1(6) . . . . ? 
C23 N9 C24 C25 -66.8(5) . . . . ? 
C23 N9 C24 C26 56.0(6) . . . . ? 
C23 N9 C24 C27 174.4(4) . . . . ? 
  
loop_ 
 _geom_hbond_atom_site_label_D 
 _geom_hbond_atom_site_label_H 
 _geom_hbond_atom_site_label_A 
 _geom_hbond_distance_DH 
 _geom_hbond_distance_HA 
 _geom_hbond_distance_DA 
 _geom_hbond_angle_DHA 
 _geom_hbond_site_symmetry_A 

N6 H6N O1  0.73(3) 2.28(3) 3.011(4) 174(4) 3_575 
N9 H9N O2  0.79(3) 2.36(4) 3.073(4) 151(4) 2_545 
  
_diffrn_measured_fraction_theta_max    0.940 
_diffrn_reflns_theta_full              25.00 
_diffrn_measured_fraction_theta_full   1.000 
_refine_diff_density_max    0.727 
_refine_diff_density_min   -0.710 
_refine_diff_density_rms    0.100 

_iucr_refine_instructions_details

;
TITL kla0193 in P2(1)/n
CELL 0.71073 11.6038 12.7036 23.0839 90.000 95.2010 90.000
ZERR 4.00 0.0005 0.0006 0.0010 0.000 0.0008 0.000
LATT 1
SYMM -x+1/2, y+1/2, -z+1/2
SFAC C  H  N  O  B  Tl
UNIT 108  172  36  12  4  4
OMIT -3 4 8
OMIT  -1 0 1
L.S. 40
ACTA 50
BOND $H
FMAP 2
PLAN 10
SIZE  0.410 0.298 0.201
CONF
 
EQIV  $1  -x, -y+2, -z
EQIV  $2  -x+1/2, y-1/2, -z+1/2
 
HTAB N3 N1
HTAB N6 O1_$1
HTAB N9 O2_$2
TEMP -73
WGHT    0.019100
FVAR       0.06649
SIMU
TL    6    0.019568    0.828996    0.124028    11.00000    0.04755    0.04035 =
         0.04461   -0.00393    0.01115    0.00381
B1    5    0.203150    0.658473    0.036614    11.00000    0.03869    0.02925 =
         0.02860   -0.00045    0.00281    0.00325
H1B   2    0.255259    0.608073    0.011567    11.00000   -1.20000
O1    4   -0.127438    0.976066   -0.077257    11.00000    0.04875    0.04254 =
         0.04594    0.01617   -0.00149    0.00504
O2    4    0.416489    0.896230    0.241463    11.00000    0.05233    0.05695 =
         0.04803   -0.01168   -0.01710    0.00920
O3    4   -0.157307    0.663262    0.158691    11.00000    0.09668    0.05675 =
         0.12203    0.03922    0.05471    0.03238
N1    3    0.039387    0.788143    0.008788    11.00000    0.03669    0.03308 =
         0.03168    0.00098    0.00523    0.00374
N2    3    0.137534    0.739326   -0.004361    11.00000    0.03333    0.03086 =
         0.02886   -0.00007    0.00113    0.00136
N3    3   -0.180870    0.870830   -0.005035    11.00000    0.04271    0.03739 =
         0.04965    0.00849    0.00381    0.00571
H3N   2   -0.159287    0.827412    0.015962    11.00000   -1.20000
N4    3    0.251413    0.793608    0.116945    11.00000    0.03649    0.02956 =
         0.03267   -0.00055    0.00074    0.00280
N5    3    0.287302    0.714962    0.082403    11.00000    0.03594    0.02891 =
         0.03272    0.00020    0.00036    0.00277
N6    3    0.259431    0.972871    0.192182    11.00000    0.05127    0.04921 =
         0.03226   -0.01161   -0.00939    0.00609
H6N   2    0.228177    0.981219    0.164109    11.00000   -1.20000
N7    3    0.042301    0.632595    0.101904    11.00000    0.04509    0.03201 =
         0.03906    0.00152    0.00554    0.00160
N8    3    0.116842    0.589848    0.066644    11.00000    0.03939    0.02806 =
         0.03311   -0.00221   -0.00020    0.00043
N9    3   -0.133934    0.499293    0.197046    11.00000    0.04384    0.04751 =
         0.05155    0.01467    0.01009    0.00216
H9N   2   -0.084340    0.458479    0.203001    11.00000   -1.20000
C1    1    0.005775    0.848344   -0.037553    11.00000    0.03392    0.02921 =
         0.03306    0.00149    0.00046   -0.00277
C2    1    0.082006    0.838282   -0.080201    11.00000    0.03817    0.05231 =
         0.03086    0.01093    0.00136   -0.00221
AFIX  43
H2A   2    0.077660    0.872636   -0.116889    11.00000   -1.20000
AFIX   0
C3    1    0.164988    0.768340   -0.058312    11.00000    0.03597    0.04403 =
         0.03329   -0.00027    0.00216   -0.00113
C4    1    0.268351    0.726735   -0.084479    11.00000    0.05929    0.08093 =
         0.04932    0.01914    0.02386    0.01765
AFIX  137
H4A   2    0.310001    0.677823   -0.057222    11.00000   -1.50000
H4B   2    0.319451    0.785241   -0.092699    11.00000   -1.50000
H4C   2    0.243677    0.689739   -0.120749    11.00000   -1.50000
AFIX   0
C5    1   -0.105792    0.905491   -0.041446    11.00000    0.03640    0.03437 =
         0.03723    0.00107    0.00222   -0.00412
C6    1   -0.304062    0.899586   -0.003074    11.00000    0.03617    0.04608 =
         0.06462    0.00110    0.00951    0.00385
C7    1   -0.345796    0.843042    0.047602    11.00000    0.06810    0.15372 =
         0.13567    0.07454    0.05439    0.02735
AFIX  137
H7A   2   -0.302938    0.867869    0.083546    11.00000   -1.50000
H7B   2   -0.333362    0.767240    0.043332    11.00000   -1.50000
H7C   2   -0.428529    0.856841    0.049248    11.00000   -1.50000
AFIX   0
C8    1   -0.317178    1.017076    0.002057    11.00000    0.05520    0.05694 =
         0.15960   -0.01739    0.03016    0.00792
AFIX  137
H8A   2   -0.274345    1.041492    0.038097    11.00000   -1.50000
H8B   2   -0.399263    1.034732    0.002711    11.00000   -1.50000
H8C   2   -0.286462    1.051456   -0.031298    11.00000   -1.50000
AFIX   0
C9    1   -0.370477    0.861850   -0.058813    11.00000    0.04591    0.12490 =
         0.13472   -0.05568   -0.00639   -0.00479
AFIX  137
H9A   2   -0.362199    0.785364   -0.062102    11.00000   -1.50000
H9B   2   -0.339651    0.896052   -0.092192    11.00000   -1.50000
H9C   2   -0.452501    0.879746   -0.058166    11.00000   -1.50000
AFIX   0
C10   1    0.344252    0.818793    0.152819    11.00000    0.03554    0.03406 =
         0.03517    0.00377   -0.00118   -0.00451
C11   1    0.438874    0.756876    0.142445    11.00000    0.03246    0.04026 =
         0.04466   -0.00225   -0.00418    0.00236
AFIX  43
H11A  2    0.513955    0.758811    0.162594    11.00000   -1.20000
AFIX   0
C12   1    0.401034    0.692212    0.096895    11.00000    0.03551    0.03773 =
         0.04050    0.00359    0.00490    0.00261
C13   1    0.465180    0.606830    0.068262    11.00000    0.04264    0.05687 =
         0.08003   -0.01815   -0.00299    0.01373
AFIX  137
H13A  2    0.414191    0.574947    0.036906    11.00000   -1.50000
H13B  2    0.490053    0.552897    0.097079    11.00000   -1.50000
H13C  2    0.533145    0.636946    0.052122    11.00000   -1.50000
AFIX   0
C14   1    0.343756    0.899956    0.199579    11.00000    0.04419    0.03742 =
         0.04047   -0.00247    0.00076   -0.00131
C15   1    0.236636    1.057010    0.234029    11.00000    0.05308    0.06660 =
         0.04569   -0.02532   -0.01250    0.01530
C16   1    0.214636    1.008522    0.291827    11.00000    0.08096    0.11549 =
         0.04998   -0.01092    0.00994    0.02035
AFIX  137
H16A  2    0.148890    0.960010    0.286315    11.00000   -1.50000
H16B  2    0.197149    1.064224    0.319066    11.00000   -1.50000
H16C  2    0.283610    0.969906    0.307558    11.00000   -1.50000
AFIX   0
C17   1    0.129558    1.116969    0.209006    11.00000    0.07454    0.08700 =
         0.07185   -0.03351   -0.02064    0.03618
AFIX  137
H17A  2    0.063463    1.068751    0.204146    11.00000   -1.50000
H17B  2    0.143801    1.146825    0.171164    11.00000   -1.50000
H17C  2    0.112626    1.173847    0.235634    11.00000   -1.50000
AFIX   0
C18   1    0.339439    1.132869    0.241425    11.00000    0.08716    0.06280 =
         0.07442   -0.02876   -0.01199    0.00426
AFIX  137
H18A  2    0.408524    1.094730    0.257445    11.00000   -1.50000
H18B  2    0.322298    1.189711    0.268033    11.00000   -1.50000
H18C  2    0.353300    1.162725    0.203531    11.00000   -1.50000
AFIX   0
C19   1   -0.018077    0.552799    0.122203    11.00000    0.04437    0.03930 =
         0.04120    0.00786   -0.00342   -0.00558
C20   1    0.019824    0.457080    0.100604    11.00000    0.05019    0.02427 =
         0.05088   -0.00014   -0.00423   -0.00484
AFIX  43
H20A  2   -0.007124    0.388496    0.108711    11.00000   -1.20000
AFIX   0
C21   1    0.104084    0.483439    0.065275    11.00000    0.04548    0.02569 =
         0.04175   -0.00173   -0.00372   -0.00338
C22   1    0.172772    0.412620    0.030092    11.00000    0.07577    0.03369 =
         0.07550   -0.01374    0.01445   -0.00150
AFIX  137
H22A  2    0.226524    0.454722    0.009273    11.00000   -1.50000
H22B  2    0.120398    0.373913    0.001993    11.00000   -1.50000
H22C  2    0.216557    0.362660    0.055878    11.00000   -1.50000
AFIX   0
C23   1   -0.108880    0.578029    0.160953    11.00000    0.04838    0.04842 =
         0.05105    0.01119    0.00602   -0.00305
C24   1   -0.219032    0.500233    0.240176    11.00000    0.05424    0.06876 =
         0.06199    0.01651    0.02270    0.00206
C25   1   -0.181583    0.575823    0.287791    11.00000    0.18872    0.11025 =
         0.10709   -0.03867    0.07716   -0.04930
AFIX  137
H25A  2   -0.178861    0.647119    0.271758    11.00000   -1.50000
H25B  2   -0.104557    0.556080    0.305351    11.00000   -1.50000
H25C  2   -0.236767    0.573851    0.317494    11.00000   -1.50000
AFIX   0
C26   1   -0.335885    0.529905    0.211007    11.00000    0.05319    0.20100 =
         0.14925    0.09355    0.04181    0.04136
AFIX  137
H26A  2   -0.332528    0.601354    0.195240    11.00000   -1.50000
H26B  2   -0.393546    0.527261    0.239476    11.00000   -1.50000
H26C  2   -0.357614    0.480405    0.179325    11.00000   -1.50000
AFIX   0
C27   1   -0.224234    0.389982    0.264328    11.00000    0.08966    0.08350 =
         0.10880    0.04327    0.05125   -0.00501
AFIX  137
H27A  2   -0.148413    0.370854    0.283620    11.00000   -1.50000
H27B  2   -0.245217    0.340535    0.232525    11.00000   -1.50000
H27C  2   -0.282445    0.387038    0.292505    11.00000   -1.50000
 
HKLF 4 1 1 0 0 0 1 0 0 0 1
 
REM  hemiplus_0m in P2(1)/n
REM R1 =  0.0398 for   6330 Fo > 4sig(Fo)  and  0.0836 for all  10043 data
REM    382 parameters refined using      0 restraints
 
END  
     
WGHT      0.0284      0.1501 
REM Highest difference peak  0.715,  deepest hole -0.684,  1-sigma level  0.103
Q1    1   0.0216  0.5095  0.1222  11.00000  0.05    0.72
Q2    1   0.4380  0.6713  0.1288  11.00000  0.05    0.62
Q3    1   0.4551  0.6381  0.0345  11.00000  0.05    0.54
Q4    1   0.5426  0.6192  0.0886  11.00000  0.05    0.44
Q5    1   0.2728  0.7667 -0.1114  11.00000  0.05    0.42
Q6    1  -0.0590  0.8170  0.1228  11.00000  0.05    0.42
Q7    1  -0.0388  0.7825  0.1247  11.00000  0.05    0.40
Q8    1  -0.3698  0.8172 -0.0168  11.00000  0.05    0.40
Q9    1   0.3805  1.0200  0.3525  11.00000  0.05    0.40
Q10   1   0.2195  0.5779 -0.1273  11.00000  0.05    0.40
;


_vrf_PLAT220_compound3
;
PROBLEM: Large Non-Solvent C Ueq(max)/Ueq(min) 4.1 Ratio
RESPONSE: Significant yet unresolvable disorder at 
the t-butyl groups cause a large range of C Ueq.
;

 
data_IV
  
_audit_creation_method            SHELXL97 
_chemical_name_systematic 
;\
Carbonyl[tris(3-anilinocarbonyl-5-methylpyrazol-1-yl-\
\k<i>N</i>^2^)borato]copper(I) tetrahydrofuran trisolvate
;
_chemical_formula_iupac 
'[Cu (C33 H31 B N9 O3) (C O)], 3C4 H8 O'
_chemical_name_common             ? 
_chemical_melting_point           ? 
_chemical_formula_moiety          
 'C34 H31 B Cu N9 O4, 3(C4 H8 O)' 
_chemical_formula_sum 
 'C46 H55 B Cu N9 O7' 
_chemical_formula_weight          920.34 
  
loop_ 
 _atom_type_symbol 
 _atom_type_description 
 _atom_type_scat_dispersion_real 
 _atom_type_scat_dispersion_imag 
 _atom_type_scat_source 
 'C'  'C'   0.0033   0.0016 
 'International Tables Vol C Tables 4.2.6.8 and 6.1.1.4' 
 'H'  'H'   0.0000   0.0000 
 'International Tables Vol C Tables 4.2.6.8 and 6.1.1.4' 
 'N'  'N'   0.0061   0.0033 
 'International Tables Vol C Tables 4.2.6.8 and 6.1.1.4' 
 'O'  'O'   0.0106   0.0060 
 'International Tables Vol C Tables 4.2.6.8 and 6.1.1.4' 
 'B'  'B'   0.0013   0.0007 
 'International Tables Vol C Tables 4.2.6.8 and 6.1.1.4' 
 'Cu'  'Cu'   0.3201   1.2651 
 'International Tables Vol C Tables 4.2.6.8 and 6.1.1.4' 
  
_symmetry_cell_setting            triclinic 
_symmetry_space_group_name_H-M    'P -1' 
_symmetry_space_group_name_Hall   '-P 1'
  
loop_ 
 _symmetry_equiv_pos_as_xyz 
 'x, y, z' 
 '-x, -y, -z' 
  
_cell_length_a                    13.1310(15) 
_cell_length_b                    19.404(2) 
_cell_length_c                    19.771(2) 
_cell_angle_alpha                 97.840(2) 
_cell_angle_beta                  107.809(2) 
_cell_angle_gamma                 97.599(2) 
_cell_volume                      4669.6(9) 
_cell_formula_units_Z             4 
_cell_measurement_temperature     200(2) 
_cell_measurement_reflns_used     5795 
_cell_measurement_theta_min       2.20 
_cell_measurement_theta_max       20.23 
  
_exptl_crystal_description        block 
_exptl_crystal_colour             colourless 
_exptl_crystal_size_max           0.29 
_exptl_crystal_size_mid           0.29 
_exptl_crystal_size_min           0.16 
_exptl_crystal_density_meas       ? 
_exptl_crystal_density_diffrn     1.309 
_exptl_crystal_density_method     'not measured' 
_exptl_crystal_F_000              1936 
_exptl_absorpt_coefficient_mu     0.527 
_exptl_absorpt_correction_type    multi-scan 
_exptl_absorpt_correction_T_min   0.8630 
_exptl_absorpt_correction_T_max   0.9195 
_exptl_absorpt_process_details    '(APEX2; Bruker, 2007)' 
  
_exptl_special_details 
;
Data collection is performed with four batch runs at \f = 0.00 \% (600 frames),
at \f = 90.00 \% (600 frames), at \f = 180 \% (600 frames) and at \f = 270 \%
(600 frames). Frame width = 0.30 \\& in \w.
; 
  
_diffrn_ambient_temperature       200(2) 
_diffrn_radiation_wavelength      0.71073 
_diffrn_radiation_type            MoK\a 
_diffrn_radiation_source          'fine-focus sealed tube' 
_diffrn_radiation_monochromator   graphite 
_diffrn_measurement_device_type   'Bruker APEXII' 
_diffrn_measurement_method        '\f and \w scans' 
_diffrn_detector_area_resol_mean  8.33 
_diffrn_reflns_number             62383 
_diffrn_reflns_av_R_equivalents   0.0600 
_diffrn_reflns_av_sigmaI/netI     0.0758 
_diffrn_reflns_limit_h_min        -17 
_diffrn_reflns_limit_h_max        17 
_diffrn_reflns_limit_k_min        -25 
_diffrn_reflns_limit_k_max        25 
_diffrn_reflns_limit_l_min        -25 
_diffrn_reflns_limit_l_max        25 
_diffrn_reflns_theta_min          1.66 
_diffrn_reflns_theta_max          27.60 
_reflns_number_total              21442 
_reflns_number_gt                 12780 
_reflns_threshold_expression      I>2sigma(I) 
  
_computing_data_collection        'APEX2 (Bruker, 2007)' 
_computing_cell_refinement        'APEX2 (Bruker, 2007)' 
_computing_data_reduction         'APEX2 (Bruker, 2007)' 
_computing_structure_solution     'SHELXS97 (Sheldrick, 2008)'
_computing_structure_refinement   'SHELXL97 (Sheldrick, 2008)'
_computing_molecular_graphics     'APEX2 (Bruker, 2007)' 
_computing_publication_material   'APEX2 (Bruker, 2007)' 
  
_refine_special_details 
;
Refinement of <i>F</i>^2^ against ALL reflections. The weighted <i>R</i>-factor
<i>wR</i> and goodness of fit <i>S</i> are based on <i>F</i>^2^, conventional
<i>R</i>-factors <i>R</i> are based on <i>F</i>, with <i>F</i> set to zero for
negative <i>F</i>^2^. The threshold expression of <i>F</i>^2^ >
\s(<i>F</i>^2^) is used only for calculating <i>R</i>-factors(gt) <i>etc</i>.
and is not relevant to the choice of reflections for refinement.
<i>R</i>-factors based on <i>F</i>^2^ are statistically about twice as large
as those based on <i>F</i>, and <i>R</i>- factors based on ALL data will be
even larger.
; 
  
_refine_ls_structure_factor_coef  Fsqd 
_refine_ls_matrix_type            full 
_refine_ls_weighting_scheme       calc 
_refine_ls_weighting_details 
 'calc w=1/[\s^2^(Fo^2^)+(0.0580P)^2^+0.6272P] where P=(Fo^2^+2Fc^2^)/3' 
_atom_sites_solution_primary      direct 
_atom_sites_solution_secondary    difmap 
_atom_sites_solution_hydrogens    geom 
_refine_ls_hydrogen_treatment     mixed 
_refine_ls_extinction_method      none 
_refine_ls_extinction_coef        ? 
_refine_ls_number_reflns          21442 
_refine_ls_number_parameters      1177 
_refine_ls_number_restraints      95 
_refine_ls_R_factor_all           0.1026 
_refine_ls_R_factor_gt            0.0535 
_refine_ls_wR_factor_ref          0.1442 
_refine_ls_wR_factor_gt           0.1214 
_refine_ls_goodness_of_fit_ref    1.022 
_refine_ls_restrained_S_all       1.041 
_refine_ls_shift/su_max           0.001 
_refine_ls_shift/su_mean          0.000 
  
loop_ 
 _atom_site_label 
 _atom_site_type_symbol 
 _atom_site_fract_x 
 _atom_site_fract_y 
 _atom_site_fract_z 
 _atom_site_U_iso_or_equiv 
 _atom_site_adp_type 
 _atom_site_occupancy 
 _atom_site_symmetry_multiplicity 
 _atom_site_calc_flag 
 _atom_site_refinement_flags 
 _atom_site_disorder_assembly 
 _atom_site_disorder_group 
Cu1 Cu 0.52095(3) 0.118786(18) 0.763430(19) 0.03229(10) Uani 1 1 d . . . 
Cu2 Cu 0.97063(3) 0.598461(18) 0.735913(19) 0.03190(10) Uani 1 1 d . . . 
B1 B 0.6368(3) 0.26064(18) 0.74871(18) 0.0344(8) Uani 1 1 d . . . 
H1 H 0.6745 0.3071 0.7439 0.041 Uiso 1 1 calc R . . 
B2 B 1.0794(2) 0.73173(17) 0.69923(18) 0.0300(7) Uani 1 1 d . . . 
H2 H 1.1152 0.7751 0.6873 0.036 Uiso 1 1 calc R . . 
N1 N 0.60295(18) 0.13246(12) 0.69006(12) 0.0323(5) Uani 1 1 d . . . 
N2 N 0.64339(18) 0.20111(12) 0.69064(12) 0.0332(6) Uani 1 1 d . . . 
N3 N 0.6112(2) -0.02160(14) 0.56727(14) 0.0404(6) Uani 1 1 d D . . 
H3A H 0.638(2) 0.0010(15) 0.5429(16) 0.048 Uiso 1 1 d D . . 
N4 N 0.44858(18) 0.20501(12) 0.74191(12) 0.0313(5) Uani 1 1 d . . . 
N5 N 0.51617(19) 0.26367(12) 0.73938(12) 0.0336(6) Uani 1 1 d . . . 
N6 N 0.1794(2) 0.19426(13) 0.75120(14) 0.0353(6) Uani 1 1 d D . . 
H6A H 0.198(2) 0.2352(10) 0.7720(15) 0.042 Uiso 1 1 d D . . 
N7 N 0.65173(18) 0.18429(12) 0.84354(12) 0.0320(5) Uani 1 1 d . . . 
N8 N 0.69416(18) 0.24364(12) 0.82429(12) 0.0319(5) Uani 1 1 d . . . 
N9 N 0.77540(19) 0.10591(13) 0.99461(13) 0.0349(6) Uani 1 1 d D . . 
H9A H 0.8370(16) 0.1262(15) 1.0008(16) 0.042 Uiso 1 1 d D . . 
N10 N 0.89593(17) 0.68143(12) 0.70367(12) 0.0303(5) Uani 1 1 d . . . 
N11 N 0.95894(17) 0.73560(11) 0.68950(12) 0.0296(5) Uani 1 1 d . . . 
N12 N 0.63353(19) 0.68905(13) 0.71966(14) 0.0352(6) Uani 1 1 d D . . 
H12A H 0.645(2) 0.7321(10) 0.7257(16) 0.042 Uiso 1 1 d D . . 
N13 N 1.10448(18) 0.66978(12) 0.80558(12) 0.0314(5) Uani 1 1 d . . . 
N14 N 1.13865(17) 0.72632(12) 0.77878(12) 0.0300(5) Uani 1 1 d . . . 
N15 N 1.2459(2) 0.60561(14) 0.96012(14) 0.0388(6) Uani 1 1 d D . . 
H15A H 1.3072(17) 0.6243(15) 0.9619(17) 0.047 Uiso 1 1 d D . . 
N16 N 1.04614(17) 0.59943(12) 0.65786(12) 0.0307(5) Uani 1 1 d . . . 
N17 N 1.08394(17) 0.66490(12) 0.64809(12) 0.0281(5) Uani 1 1 d . . . 
N18 N 1.0996(2) 0.43489(13) 0.58172(14) 0.0365(6) Uani 1 1 d D . . 
H18A H 1.142(2) 0.4560(15) 0.5659(16) 0.044 Uiso 1 1 d D . . 
O1 O 0.5595(2) -0.01420(11) 0.66730(12) 0.0527(6) Uani 1 1 d . . . 
O2 O 0.25051(18) 0.10611(11) 0.70423(13) 0.0543(6) Uani 1 1 d . . . 
O3 O 0.59571(17) 0.09371(12) 0.93023(12) 0.0535(6) Uani 1 1 d . . . 
O4 O 0.4179(2) -0.01976(12) 0.77656(13) 0.0595(7) Uani 1 1 d . . . 
O5 O 0.70666(17) 0.59026(11) 0.70438(13) 0.0484(6) Uani 1 1 d . . . 
O6 O 1.06235(18) 0.59313(14) 0.90895(13) 0.0657(8) Uani 1 1 d . . . 
O7 O 0.96940(18) 0.45221(11) 0.63337(13) 0.0519(6) Uani 1 1 d . . . 
O8 O 0.8579(2) 0.47057(14) 0.76398(16) 0.0768(8) Uani 1 1 d . . . 
C1 C 0.6239(2) 0.09311(15) 0.63645(15) 0.0334(7) Uani 1 1 d . . . 
C2 C 0.6776(2) 0.13654(17) 0.60223(16) 0.0396(7) Uani 1 1 d . . . 
H2A H 0.7009 0.1220 0.5624 0.048 Uiso 1 1 calc R . . 
C3 C 0.6895(2) 0.20432(17) 0.63778(16) 0.0385(7) Uani 1 1 d . . . 
C4 C 0.5945(2) 0.01464(16) 0.62587(16) 0.0359(7) Uani 1 1 d . . . 
C5 C 0.5487(3) -0.14483(17) 0.57794(17) 0.0432(8) Uani 1 1 d . . . 
H5 H 0.5324 -0.1292 0.6205 0.052 Uiso 1 1 calc R . . 
C6 C 0.5312(3) -0.21661(18) 0.54959(18) 0.0516(9) Uani 1 1 d . . . 
H6 H 0.5028 -0.2500 0.5732 0.062 Uiso 1 1 calc R . . 
C7 C 0.5541(3) -0.24044(19) 0.48773(19) 0.0557(9) Uani 1 1 d . . . 
H7 H 0.5417 -0.2897 0.4689 0.067 Uiso 1 1 calc R . . 
C8 C 0.5954(3) -0.19174(19) 0.45367(18) 0.0519(9) Uani 1 1 d . . . 
H8 H 0.6112 -0.2075 0.4110 0.062 Uiso 1 1 calc R . . 
C9 C 0.6138(3) -0.12025(18) 0.48114(17) 0.0466(8) Uani 1 1 d . . . 
H9 H 0.6426 -0.0872 0.4574 0.056 Uiso 1 1 calc R . . 
C10 C 0.5905(2) -0.09608(17) 0.54330(16) 0.0382(7) Uani 1 1 d . . . 
C11 C 0.7421(3) 0.27270(18) 0.62552(19) 0.0541(9) Uani 1 1 d . . . 
H11A H 0.6894 0.3045 0.6165 0.081 Uiso 1 1 calc R . . 
H11B H 0.7666 0.2635 0.5836 0.081 Uiso 1 1 calc R . . 
H11C H 0.8047 0.2948 0.6684 0.081 Uiso 1 1 calc R . . 
C12 C 0.3507(2) 0.22308(15) 0.73146(15) 0.0324(6) Uani 1 1 d . . . 
C13 C 0.3542(3) 0.29270(16) 0.72136(16) 0.0405(7) Uani 1 1 d . . . 
H13 H 0.2958 0.3181 0.7128 0.049 Uiso 1 1 calc R . . 
C14 C 0.4604(3) 0.31714(15) 0.72637(16) 0.0378(7) Uani 1 1 d . . . 
C15 C 0.2559(2) 0.16857(16) 0.72721(15) 0.0344(7) Uani 1 1 d . . . 
C16 C 0.0309(3) 0.09069(17) 0.70708(17) 0.0456(8) Uani 1 1 d . . . 
H16 H 0.0667 0.0679 0.6778 0.055 Uiso 1 1 calc R . . 
C17 C -0.0697(3) 0.05754(19) 0.70701(19) 0.0528(9) Uani 1 1 d . . . 
H17 H -0.1020 0.0123 0.6774 0.063 Uiso 1 1 calc R . . 
C18 C -0.1234(3) 0.08869(18) 0.74877(18) 0.0480(8) Uani 1 1 d . . . 
H18 H -0.1917 0.0654 0.7488 0.058 Uiso 1 1 calc R . . 
C19 C -0.0763(3) 0.1540(2) 0.7903(2) 0.0640(11) Uani 1 1 d . . . 
H19 H -0.1129 0.1767 0.8191 0.077 Uiso 1 1 calc R . . 
C20 C 0.0234(3) 0.18763(18) 0.7912(2) 0.0583(10) Uani 1 1 d . . . 
H20 H 0.0550 0.2329 0.8208 0.070 Uiso 1 1 calc R . . 
C21 C 0.0783(2) 0.15588(15) 0.74906(15) 0.0338(7) Uani 1 1 d . . . 
C22 C 0.5117(3) 0.38783(16) 0.7172(2) 0.0583(10) Uani 1 1 d . . . 
H22A H 0.5650 0.4128 0.7635 0.088 Uiso 1 1 calc R . . 
H22B H 0.4552 0.4160 0.7011 0.088 Uiso 1 1 calc R . . 
H22C H 0.5482 0.3807 0.6811 0.088 Uiso 1 1 calc R . . 
C23 C 0.7195(2) 0.18122(14) 0.90871(15) 0.0309(6) Uani 1 1 d . . . 
C24 C 0.8068(2) 0.23872(15) 0.93214(16) 0.0343(7) Uani 1 1 d . . . 
H24 H 0.8660 0.2490 0.9763 0.041 Uiso 1 1 calc R . . 
C25 C 0.7879(2) 0.27715(15) 0.87715(16) 0.0340(7) Uani 1 1 d . . . 
C26 C 0.6903(2) 0.12270(15) 0.94513(15) 0.0343(7) Uani 1 1 d . . . 
C27 C 0.6757(3) 0.01965(15) 1.04380(15) 0.0371(7) Uani 1 1 d . . . 
H27 H 0.6078 0.0289 1.0157 0.045 Uiso 1 1 calc R . . 
C28 C 0.6788(3) -0.02871(17) 1.08951(17) 0.0467(8) Uani 1 1 d . . . 
H28 H 0.6127 -0.0527 1.0922 0.056 Uiso 1 1 calc R . . 
C29 C 0.7756(3) -0.0424(2) 1.1307(2) 0.0713(12) Uani 1 1 d . . . 
H29 H 0.7769 -0.0751 1.1625 0.086 Uiso 1 1 calc R . . 
C30 C 0.8719(3) -0.0082(2) 1.1258(2) 0.0820(14) Uani 1 1 d . . . 
H30 H 0.9396 -0.0177 1.1539 0.098 Uiso 1 1 calc R . . 
C31 C 0.8695(3) 0.03998(19) 1.0796(2) 0.0585(10) Uani 1 1 d . . . 
H31 H 0.9356 0.0630 1.0760 0.070 Uiso 1 1 calc R . . 
C32 C 0.7719(2) 0.05463(15) 1.03912(15) 0.0352(7) Uani 1 1 d . . . 
C33 C 0.8563(3) 0.34241(16) 0.87051(18) 0.0501(9) Uani 1 1 d . . . 
H33A H 0.8868 0.3308 0.8318 0.075 Uiso 1 1 calc R . . 
H33B H 0.9156 0.3607 0.9163 0.075 Uiso 1 1 calc R . . 
H33C H 0.8113 0.3784 0.8590 0.075 Uiso 1 1 calc R . . 
C34 C 0.4565(2) 0.03455(16) 0.77206(16) 0.0376(7) Uani 1 1 d . . . 
C35 C 0.7983(2) 0.70055(14) 0.69290(15) 0.0299(6) Uani 1 1 d . . . 
C36 C 0.7987(2) 0.76610(16) 0.67187(16) 0.0375(7) Uani 1 1 d . . . 
H36 H 0.7399 0.7911 0.6610 0.045 Uiso 1 1 calc R . . 
C37 C 0.9021(2) 0.78731(15) 0.67010(16) 0.0345(7) Uani 1 1 d . . . 
C38 C 0.7098(2) 0.65347(16) 0.70632(15) 0.0338(7) Uani 1 1 d . . . 
C39 C 0.5185(2) 0.59466(18) 0.74910(17) 0.0428(8) Uani 1 1 d . . . 
H39 H 0.5722 0.5656 0.7544 0.051 Uiso 1 1 calc R . . 
C40 C 0.4204(3) 0.57171(19) 0.75968(18) 0.0489(9) Uani 1 1 d . . . 
H40 H 0.4077 0.5266 0.7723 0.059 Uiso 1 1 calc R . . 
C41 C 0.3414(3) 0.61288(19) 0.75225(17) 0.0490(9) Uani 1 1 d . . . 
H41 H 0.2750 0.5965 0.7597 0.059 Uiso 1 1 calc R . . 
C42 C 0.3598(2) 0.67784(18) 0.73392(17) 0.0436(8) Uani 1 1 d . . . 
H42 H 0.3058 0.7066 0.7288 0.052 Uiso 1 1 calc R . . 
C43 C 0.4563(2) 0.70193(17) 0.72285(16) 0.0390(7) Uani 1 1 d . . . 
H43 H 0.4680 0.7469 0.7098 0.047 Uiso 1 1 calc R . . 
C44 C 0.5365(2) 0.66029(16) 0.73078(15) 0.0322(7) Uani 1 1 d . . . 
C45 C 0.9494(3) 0.85372(17) 0.6515(2) 0.0507(9) Uani 1 1 d . . . 
H45A H 1.0047 0.8828 0.6949 0.076 Uiso 1 1 calc R . . 
H45B H 0.8916 0.8803 0.6329 0.076 Uiso 1 1 calc R . . 
H45C H 0.9829 0.8416 0.6145 0.076 Uiso 1 1 calc R . . 
C46 C 1.1734(2) 0.67667(16) 0.87306(15) 0.0342(7) Uani 1 1 d . . . 
C47 C 1.2512(2) 0.73860(16) 0.89045(16) 0.0363(7) Uani 1 1 d . . . 
H47 H 1.3089 0.7559 0.9348 0.044 Uiso 1 1 calc R . . 
C48 C 1.2269(2) 0.76941(15) 0.82967(16) 0.0326(7) Uani 1 1 d . . . 
C49 C 1.1544(2) 0.62151(17) 0.91571(16) 0.0385(7) Uani 1 1 d . . . 
C50 C 1.1637(3) 0.51337(17) 1.01253(18) 0.0491(8) Uani 1 1 d . . . 
H50 H 1.0923 0.5195 0.9872 0.059 Uiso 1 1 calc R . . 
C51 C 1.1784(3) 0.46415(19) 1.0576(2) 0.0590(10) Uani 1 1 d . . . 
H51 H 1.1168 0.4375 1.0636 0.071 Uiso 1 1 calc R . . 
C52 C 1.2799(3) 0.4532(2) 1.0935(2) 0.0721(12) Uani 1 1 d . . . 
H52 H 1.2887 0.4193 1.1243 0.087 Uiso 1 1 calc R . . 
C53 C 1.3699(3) 0.4917(2) 1.0848(2) 0.0799(14) Uani 1 1 d . . . 
H53 H 1.4408 0.4842 1.1094 0.096 Uiso 1 1 calc R . . 
C54 C 1.3561(3) 0.54163(19) 1.03989(19) 0.0594(10) Uani 1 1 d . . . 
H54 H 1.4181 0.5676 1.0336 0.071 Uiso 1 1 calc R . . 
C55 C 1.2534(3) 0.55382(16) 1.00434(16) 0.0404(7) Uani 1 1 d . . . 
C56 C 1.2827(3) 0.83633(16) 0.81723(17) 0.0439(8) Uani 1 1 d . . . 
H56A H 1.3035 0.8263 0.7739 0.066 Uiso 1 1 calc R . . 
H56B H 1.3479 0.8563 0.8591 0.066 Uiso 1 1 calc R . . 
H56C H 1.2331 0.8703 0.8105 0.066 Uiso 1 1 calc R . . 
C57 C 1.0682(2) 0.55288(15) 0.60995(15) 0.0314(6) Uani 1 1 d . . . 
C58 C 1.1190(2) 0.58826(15) 0.56909(15) 0.0351(7) Uani 1 1 d . . . 
H58 H 1.1426 0.5676 0.5315 0.042 Uiso 1 1 calc R . . 
C59 C 1.1281(2) 0.65918(16) 0.59393(15) 0.0330(7) Uani 1 1 d . . . 
C60 C 1.0396(2) 0.47546(16) 0.60942(16) 0.0359(7) Uani 1 1 d . . . 
C61 C 1.0310(3) 0.31850(17) 0.60482(18) 0.0469(8) Uani 1 1 d . . . 
H61 H 0.9888 0.3388 0.6308 0.056 Uiso 1 1 calc R . . 
C62 C 1.0321(3) 0.24596(18) 0.59660(19) 0.0567(10) Uani 1 1 d . . . 
H62 H 0.9898 0.2171 0.6171 0.068 Uiso 1 1 calc R . . 
C63 C 1.0929(3) 0.21551(19) 0.5596(2) 0.0584(10) Uani 1 1 d . . . 
H63 H 1.0940 0.1663 0.5552 0.070 Uiso 1 1 calc R . . 
C64 C 1.1524(3) 0.25750(19) 0.5289(2) 0.0598(10) Uani 1 1 d . . . 
H64 H 1.1939 0.2369 0.5026 0.072 Uiso 1 1 calc R . . 
C65 C 1.1521(3) 0.32926(18) 0.53611(18) 0.0502(9) Uani 1 1 d . . . 
H65 H 1.1934 0.3576 0.5146 0.060 Uiso 1 1 calc R . . 
C66 C 1.0923(2) 0.36051(16) 0.57452(16) 0.0374(7) Uani 1 1 d . . . 
C67 C 1.1760(3) 0.72175(16) 0.57004(17) 0.0444(8) Uani 1 1 d . . . 
H67A H 1.1200 0.7498 0.5525 0.067 Uiso 1 1 calc R . . 
H67B H 1.2036 0.7056 0.5310 0.067 Uiso 1 1 calc R . . 
H67C H 1.2359 0.7509 0.6109 0.067 Uiso 1 1 calc R . . 
C68 C 0.9022(3) 0.51998(18) 0.75389(18) 0.0445(8) Uani 1 1 d . . . 
O9 O 0.7348(2) 0.03977(13) 0.47714(13) 0.0600(7) Uani 1 1 d . . . 
C69 C 0.8459(3) 0.0316(3) 0.5003(2) 0.0895(15) Uani 1 1 d . . . 
H69A H 0.8518 -0.0145 0.5158 0.107 Uiso 1 1 calc R . . 
H69B H 0.8892 0.0697 0.5417 0.107 Uiso 1 1 calc R . . 
C70 C 0.8867(3) 0.0351(2) 0.4402(2) 0.0743(12) Uani 1 1 d . . . 
H70A H 0.8939 -0.0126 0.4192 0.089 Uiso 1 1 calc R . . 
H70B H 0.9589 0.0665 0.4566 0.089 Uiso 1 1 calc R . . 
C71 C 0.8061(3) 0.0639(2) 0.3859(2) 0.0586(10) Uani 1 1 d . . . 
H71A H 0.8313 0.1149 0.3884 0.070 Uiso 1 1 calc R . . 
H71B H 0.7928 0.0381 0.3363 0.070 Uiso 1 1 calc R . . 
C72 C 0.7071(3) 0.0525(3) 0.4067(2) 0.0981(17) Uani 1 1 d . . . 
H72A H 0.6726 0.0949 0.4035 0.118 Uiso 1 1 calc R . . 
H72B H 0.6543 0.0116 0.3731 0.118 Uiso 1 1 calc R . . 
O10 O 0.1914(2) 0.33982(13) 0.83641(16) 0.0757(8) Uani 1 1 d . . . 
C73 C 0.2803(4) 0.3863(2) 0.8865(3) 0.0845(14) Uani 1 1 d . . . 
H73A H 0.3443 0.3629 0.8997 0.101 Uiso 1 1 calc R . . 
H73B H 0.2637 0.4028 0.9309 0.101 Uiso 1 1 calc R . . 
C74 C 0.3018(4) 0.4461(2) 0.8512(3) 0.0827(14) Uani 1 1 d . . . 
H74A H 0.3319 0.4907 0.8872 0.099 Uiso 1 1 calc R . . 
H74B H 0.3538 0.4376 0.8252 0.099 Uiso 1 1 calc R . . 
C75 C 0.1952(4) 0.4494(2) 0.8005(3) 0.0937(15) Uani 1 1 d . . . 
H75A H 0.1973 0.4458 0.7505 0.112 Uiso 1 1 calc R . . 
H75B H 0.1717 0.4942 0.8142 0.112 Uiso 1 1 calc R . . 
C76 C 0.1205(4) 0.3869(3) 0.8069(3) 0.1009(17) Uani 1 1 d . . . 
H76A H 0.0800 0.4015 0.8396 0.121 Uiso 1 1 calc R . . 
H76B H 0.0677 0.3638 0.7590 0.121 Uiso 1 1 calc R . . 
O11 O 1.00949(19) 0.17461(13) 1.04236(13) 0.0588(6) Uani 1 1 d U . . 
C77 C 1.0793(3) 0.1885(2) 1.0009(2) 0.0803(11) Uani 1 1 d U . . 
H77A H 1.0367 0.1818 0.9489 0.096 Uiso 1 1 calc R . . 
H77B H 1.1334 0.1569 1.0072 0.096 Uiso 1 1 calc R . . 
C78 C 1.1336(4) 0.2637(3) 1.0302(3) 0.1099(14) Uani 1 1 d U . . 
H78A H 1.2099 0.2706 1.0305 0.132 Uiso 1 1 calc R . . 
H78B H 1.0948 0.2953 1.0003 0.132 Uiso 1 1 calc R . . 
C79 C 1.1301(4) 0.2790(3) 1.1034(3) 0.1019(14) Uani 1 1 d U . . 
H79A H 1.1086 0.3255 1.1125 0.122 Uiso 1 1 calc R . . 
H79B H 1.2025 0.2802 1.1390 0.122 Uiso 1 1 calc R . . 
C80 C 1.0501(3) 0.2226(2) 1.1094(2) 0.0693(10) Uani 1 1 d U . . 
H80A H 1.0844 0.1980 1.1488 0.083 Uiso 1 1 calc R . . 
H80B H 0.9900 0.2424 1.1204 0.083 Uiso 1 1 calc R . . 
O12 O 0.6789(2) 0.84528(12) 0.77710(14) 0.0644(7) Uani 1 1 d U . . 
C81 C 0.7562(4) 0.9067(2) 0.7827(2) 0.0788(11) Uani 1 1 d U . . 
H81A H 0.7382 0.9246 0.7367 0.095 Uiso 1 1 calc R . . 
H81B H 0.8304 0.8957 0.7943 0.095 Uiso 1 1 calc R . . 
C82 C 0.7495(5) 0.9608(2) 0.8426(3) 0.1090(14) Uani 1 1 d U . . 
H82A H 0.8230 0.9801 0.8780 0.131 Uiso 1 1 calc R . . 
H82B H 0.7182 1.0004 0.8228 0.131 Uiso 1 1 calc R . . 
C83 C 0.6815(4) 0.9261(2) 0.8767(3) 0.1045(14) Uani 1 1 d U . . 
H83A H 0.6328 0.9570 0.8888 0.125 Uiso 1 1 calc R . . 
H83B H 0.7256 0.9123 0.9214 0.125 Uiso 1 1 calc R . . 
C84 C 0.6183(4) 0.8629(2) 0.8214(2) 0.0909(12) Uani 1 1 d U . . 
H84A H 0.6032 0.8229 0.8452 0.109 Uiso 1 1 calc R . . 
H84B H 0.5480 0.8732 0.7923 0.109 Uiso 1 1 calc R . . 
O13 O 1.47122(17) 0.68059(12) 0.99508(12) 0.0500(6) Uani 1 1 d . . . 
C85 C 1.5337(3) 0.7123(2) 0.9555(2) 0.0665(11) Uani 1 1 d . . . 
H85A H 1.4879 0.7100 0.9047 0.080 Uiso 1 1 calc R . . 
H85B H 1.5957 0.6883 0.9557 0.080 Uiso 1 1 calc R . . 
C86 C 1.5734(3) 0.7886(2) 0.9952(2) 0.0747(12) Uani 1 1 d . . . 
H86A H 1.6440 0.8085 0.9908 0.090 Uiso 1 1 calc R . . 
H86B H 1.5197 0.8187 0.9768 0.090 Uiso 1 1 calc R . . 
C87 C 1.5849(4) 0.7822(2) 1.0716(2) 0.0742(12) Uani 1 1 d . . . 
H87A H 1.6567 0.7709 1.0966 0.089 Uiso 1 1 calc R . . 
H87B H 1.5764 0.8266 1.0989 0.089 Uiso 1 1 calc R . . 
C88 C 1.4962(3) 0.72375(19) 1.06424(19) 0.0599(10) Uani 1 1 d . . . 
H88A H 1.5193 0.6958 1.1027 0.072 Uiso 1 1 calc R . . 
H88B H 1.4314 0.7426 1.0684 0.072 Uiso 1 1 calc R . . 
O14 O 1.27113(19) 0.48568(12) 0.52043(12) 0.0547(6) Uani 1 1 d . . . 
C89 C 1.2708(3) 0.4734(2) 0.44789(18) 0.0591(10) Uani 1 1 d . . . 
H89A H 1.1952 0.4595 0.4139 0.071 Uiso 1 1 calc R . . 
H89B H 1.3111 0.4350 0.4403 0.071 Uiso 1 1 calc R . . 
C90 C 1.3241(4) 0.5402(2) 0.4360(2) 0.0853(14) Uani 1 1 d . . . 
H90A H 1.2694 0.5675 0.4122 0.102 Uiso 1 1 calc R . . 
H90B H 1.3700 0.5310 0.4055 0.102 Uiso 1 1 calc R . . 
C91 C 1.3926(4) 0.5797(2) 0.5105(3) 0.0954(16) Uani 1 1 d . . . 
H91A H 1.4709 0.5864 0.5156 0.115 Uiso 1 1 calc R . . 
H91B H 1.3729 0.6267 0.5202 0.115 Uiso 1 1 calc R . . 
C92 C 1.3684(3) 0.5342(2) 0.5609(2) 0.0726(12) Uani 1 1 d . . . 
H92A H 1.4287 0.5086 0.5790 0.087 Uiso 1 1 calc R . . 
H92B H 1.3585 0.5634 0.6028 0.087 Uiso 1 1 calc R . . 
  
loop_ 
 _atom_site_aniso_label 
 _atom_site_aniso_U_11 
 _atom_site_aniso_U_22 
 _atom_site_aniso_U_33 
 _atom_site_aniso_U_23 
 _atom_site_aniso_U_13 
 _atom_site_aniso_U_12 
Cu1 0.0343(2) 0.0314(2) 0.0344(2) 0.00980(15) 0.01445(16) 0.00597(15) 
Cu2 0.02769(19) 0.0323(2) 0.0398(2) 0.00941(16) 0.01562(16) 0.00594(15) 
B1 0.039(2) 0.0328(19) 0.0358(19) 0.0132(15) 0.0175(16) 0.0044(15) 
B2 0.0254(17) 0.0313(18) 0.0384(19) 0.0092(15) 0.0155(15) 0.0075(14) 
N1 0.0336(13) 0.0327(14) 0.0339(14) 0.0097(11) 0.0138(11) 0.0078(11) 
N2 0.0335(13) 0.0393(14) 0.0330(13) 0.0146(11) 0.0157(11) 0.0091(11) 
N3 0.0475(16) 0.0429(17) 0.0369(15) 0.0054(12) 0.0215(13) 0.0135(13) 
N4 0.0342(14) 0.0310(13) 0.0321(13) 0.0086(10) 0.0141(11) 0.0073(11) 
N5 0.0380(14) 0.0306(13) 0.0366(14) 0.0111(11) 0.0163(12) 0.0067(11) 
N6 0.0377(15) 0.0309(14) 0.0391(15) 0.0027(11) 0.0158(12) 0.0086(12) 
N7 0.0342(14) 0.0306(13) 0.0337(14) 0.0104(11) 0.0137(11) 0.0037(11) 
N8 0.0347(14) 0.0296(13) 0.0346(14) 0.0092(11) 0.0155(11) 0.0035(11) 
N9 0.0295(13) 0.0358(15) 0.0376(14) 0.0109(11) 0.0081(12) 0.0027(11) 
N10 0.0257(12) 0.0311(13) 0.0378(14) 0.0070(11) 0.0160(11) 0.0043(10) 
N11 0.0264(12) 0.0283(13) 0.0375(14) 0.0083(10) 0.0140(11) 0.0068(10) 
N12 0.0242(13) 0.0343(14) 0.0504(16) 0.0041(13) 0.0170(12) 0.0095(11) 
N13 0.0265(13) 0.0371(14) 0.0335(14) 0.0091(11) 0.0129(11) 0.0067(11) 
N14 0.0252(12) 0.0301(13) 0.0365(14) 0.0046(11) 0.0139(11) 0.0042(10) 
N15 0.0294(14) 0.0452(16) 0.0406(15) 0.0137(12) 0.0092(13) 0.0024(12) 
N16 0.0273(13) 0.0306(13) 0.0362(14) 0.0057(11) 0.0134(11) 0.0053(10) 
N17 0.0236(12) 0.0319(13) 0.0323(13) 0.0080(10) 0.0127(10) 0.0070(10) 
N18 0.0372(15) 0.0335(15) 0.0428(15) 0.0051(12) 0.0189(12) 0.0085(12) 
O1 0.0764(17) 0.0423(13) 0.0546(15) 0.0078(11) 0.0433(14) 0.0124(12) 
O2 0.0458(14) 0.0351(13) 0.0846(18) -0.0021(12) 0.0297(13) 0.0100(11) 
O3 0.0309(12) 0.0698(16) 0.0575(15) 0.0339(13) 0.0059(11) -0.0006(11) 
O4 0.0755(18) 0.0399(14) 0.0652(16) 0.0151(12) 0.0304(14) -0.0047(13) 
O5 0.0414(13) 0.0342(13) 0.0815(17) 0.0080(11) 0.0373(13) 0.0102(10) 
O6 0.0331(13) 0.101(2) 0.0672(17) 0.0492(15) 0.0136(12) 0.0008(13) 
O7 0.0565(15) 0.0387(13) 0.0730(17) 0.0057(12) 0.0421(13) 0.0069(11) 
O8 0.086(2) 0.0591(17) 0.096(2) 0.0341(16) 0.0426(18) -0.0030(15) 
C1 0.0311(16) 0.0416(18) 0.0315(16) 0.0094(13) 0.0126(13) 0.0127(13) 
C2 0.0391(18) 0.054(2) 0.0341(17) 0.0116(15) 0.0202(14) 0.0127(15) 
C3 0.0364(17) 0.051(2) 0.0363(17) 0.0163(15) 0.0187(14) 0.0114(15) 
C4 0.0301(16) 0.0437(18) 0.0354(17) 0.0068(14) 0.0115(14) 0.0109(14) 
C5 0.0456(19) 0.046(2) 0.0367(18) 0.0038(15) 0.0121(15) 0.0130(16) 
C6 0.057(2) 0.046(2) 0.048(2) 0.0082(17) 0.0129(18) 0.0092(17) 
C7 0.060(2) 0.047(2) 0.051(2) -0.0030(18) 0.0095(19) 0.0144(18) 
C8 0.055(2) 0.061(2) 0.0387(19) -0.0035(17) 0.0155(17) 0.0179(18) 
C9 0.046(2) 0.053(2) 0.0421(19) 0.0020(16) 0.0182(16) 0.0146(16) 
C10 0.0319(16) 0.0465(19) 0.0346(17) 0.0028(14) 0.0073(14) 0.0148(14) 
C11 0.066(2) 0.056(2) 0.056(2) 0.0210(18) 0.040(2) 0.0053(18) 
C12 0.0362(17) 0.0343(16) 0.0283(15) 0.0058(12) 0.0116(13) 0.0095(13) 
C13 0.0463(19) 0.0360(18) 0.0465(19) 0.0103(14) 0.0198(16) 0.0189(15) 
C14 0.0470(19) 0.0308(16) 0.0407(18) 0.0108(13) 0.0181(15) 0.0122(14) 
C15 0.0378(17) 0.0344(17) 0.0320(16) 0.0085(13) 0.0104(14) 0.0105(14) 
C16 0.0417(19) 0.047(2) 0.047(2) 0.0021(16) 0.0178(16) 0.0077(16) 
C17 0.045(2) 0.050(2) 0.053(2) 0.0031(17) 0.0082(17) -0.0001(17) 
C18 0.0352(18) 0.058(2) 0.053(2) 0.0218(18) 0.0125(16) 0.0090(16) 
C19 0.053(2) 0.063(3) 0.085(3) 0.003(2) 0.040(2) 0.013(2) 
C20 0.056(2) 0.044(2) 0.079(3) -0.0046(19) 0.037(2) 0.0047(17) 
C21 0.0327(16) 0.0360(17) 0.0353(16) 0.0106(13) 0.0110(13) 0.0115(13) 
C22 0.066(2) 0.0330(19) 0.087(3) 0.0231(18) 0.033(2) 0.0145(17) 
C23 0.0331(16) 0.0321(16) 0.0307(16) 0.0066(12) 0.0135(13) 0.0093(13) 
C24 0.0327(16) 0.0364(17) 0.0314(16) 0.0029(13) 0.0093(13) 0.0048(13) 
C25 0.0333(16) 0.0300(16) 0.0384(17) 0.0008(13) 0.0149(14) 0.0037(13) 
C26 0.0369(17) 0.0371(17) 0.0293(16) 0.0068(13) 0.0111(14) 0.0069(14) 
C27 0.0415(18) 0.0343(17) 0.0335(17) 0.0052(13) 0.0106(14) 0.0056(14) 
C28 0.052(2) 0.0421(19) 0.0414(19) 0.0116(15) 0.0117(17) -0.0004(16) 
C29 0.068(3) 0.071(3) 0.074(3) 0.046(2) 0.011(2) 0.004(2) 
C30 0.057(3) 0.094(3) 0.095(3) 0.066(3) 0.003(2) 0.021(2) 
C31 0.039(2) 0.065(2) 0.070(3) 0.036(2) 0.0071(18) 0.0048(17) 
C32 0.0400(17) 0.0333(16) 0.0283(16) 0.0053(13) 0.0060(14) 0.0066(14) 
C33 0.051(2) 0.0375(19) 0.056(2) 0.0091(16) 0.0157(18) -0.0076(16) 
C34 0.0423(18) 0.0388(18) 0.0334(17) 0.0067(14) 0.0142(14) 0.0091(15) 
C35 0.0239(14) 0.0328(16) 0.0338(16) 0.0020(12) 0.0120(12) 0.0064(12) 
C36 0.0334(17) 0.0402(18) 0.0462(18) 0.0103(14) 0.0184(15) 0.0174(14) 
C37 0.0344(16) 0.0334(17) 0.0424(18) 0.0114(14) 0.0175(14) 0.0131(13) 
C38 0.0251(15) 0.0385(18) 0.0384(17) 0.0020(14) 0.0129(13) 0.0080(13) 
C39 0.0316(17) 0.057(2) 0.0459(19) 0.0154(16) 0.0161(15) 0.0144(15) 
C40 0.0415(19) 0.058(2) 0.057(2) 0.0237(18) 0.0246(17) 0.0083(17) 
C41 0.0298(17) 0.068(2) 0.048(2) -0.0007(18) 0.0205(16) -0.0002(16) 
C42 0.0247(16) 0.059(2) 0.0457(19) -0.0020(16) 0.0131(14) 0.0117(15) 
C43 0.0283(16) 0.0475(19) 0.0420(18) 0.0019(15) 0.0143(14) 0.0103(14) 
C44 0.0216(14) 0.0439(18) 0.0317(16) 0.0047(13) 0.0100(12) 0.0074(13) 
C45 0.050(2) 0.044(2) 0.073(2) 0.0277(18) 0.0302(19) 0.0169(16) 
C46 0.0285(15) 0.0433(18) 0.0335(16) 0.0053(13) 0.0142(13) 0.0087(13) 
C47 0.0318(16) 0.0432(18) 0.0314(16) 0.0006(14) 0.0102(13) 0.0053(14) 
C48 0.0288(15) 0.0310(16) 0.0386(17) -0.0022(13) 0.0157(14) 0.0054(13) 
C49 0.0347(17) 0.0489(19) 0.0333(17) 0.0079(14) 0.0137(14) 0.0060(15) 
C50 0.047(2) 0.053(2) 0.051(2) 0.0181(17) 0.0179(17) 0.0091(17) 
C51 0.064(3) 0.056(2) 0.061(2) 0.0232(19) 0.025(2) 0.0037(19) 
C52 0.070(3) 0.061(3) 0.068(3) 0.033(2) -0.002(2) -0.010(2) 
C53 0.057(3) 0.077(3) 0.080(3) 0.043(2) -0.019(2) -0.004(2) 
C54 0.044(2) 0.059(2) 0.062(2) 0.0254(19) -0.0021(18) -0.0079(18) 
C55 0.0416(18) 0.0386(18) 0.0356(17) 0.0060(14) 0.0075(15) 0.0028(15) 
C56 0.0437(19) 0.0365(18) 0.0462(19) 0.0007(15) 0.0133(16) 0.0004(15) 
C57 0.0267(15) 0.0354(16) 0.0322(16) 0.0045(13) 0.0096(13) 0.0078(12) 
C58 0.0352(17) 0.0431(18) 0.0338(16) 0.0077(14) 0.0179(14) 0.0143(14) 
C59 0.0299(16) 0.0437(18) 0.0295(15) 0.0099(13) 0.0120(13) 0.0124(13) 
C60 0.0317(16) 0.0385(18) 0.0358(17) 0.0007(13) 0.0120(14) 0.0053(13) 
C61 0.054(2) 0.042(2) 0.048(2) 0.0118(16) 0.0185(17) 0.0118(16) 
C62 0.068(3) 0.045(2) 0.053(2) 0.0171(17) 0.013(2) 0.0080(19) 
C63 0.069(3) 0.037(2) 0.059(2) 0.0050(18) 0.004(2) 0.0176(19) 
C64 0.064(2) 0.048(2) 0.067(3) -0.0006(19) 0.019(2) 0.0254(19) 
C65 0.052(2) 0.047(2) 0.055(2) 0.0042(17) 0.0226(18) 0.0136(17) 
C66 0.0382(17) 0.0368(18) 0.0356(17) 0.0039(14) 0.0097(14) 0.0106(14) 
C67 0.058(2) 0.046(2) 0.0419(19) 0.0167(15) 0.0291(17) 0.0137(16) 
C68 0.0451(19) 0.044(2) 0.052(2) 0.0152(16) 0.0236(17) 0.0092(16) 
O9 0.0560(16) 0.0809(18) 0.0526(15) 0.0089(13) 0.0326(13) 0.0138(13) 
C69 0.064(3) 0.139(5) 0.077(3) 0.047(3) 0.026(3) 0.026(3) 
C70 0.052(2) 0.115(4) 0.057(3) 0.010(2) 0.024(2) 0.015(2) 
C71 0.062(2) 0.060(2) 0.065(3) 0.018(2) 0.036(2) 0.0085(19) 
C72 0.060(3) 0.180(5) 0.074(3) 0.063(3) 0.031(2) 0.027(3) 
O10 0.089(2) 0.0416(15) 0.084(2) -0.0018(14) 0.0225(18) -0.0029(15) 
C73 0.075(3) 0.065(3) 0.101(4) 0.014(3) 0.012(3) 0.013(2) 
C74 0.086(3) 0.077(3) 0.086(3) 0.006(3) 0.047(3) -0.013(3) 
C75 0.104(4) 0.068(3) 0.094(4) 0.026(3) 0.010(3) 0.009(3) 
C76 0.055(3) 0.127(5) 0.101(4) 0.016(3) 0.005(3) 0.003(3) 
O11 0.0478(13) 0.0681(15) 0.0564(14) 0.0071(12) 0.0186(11) -0.0019(11) 
C77 0.071(2) 0.098(3) 0.076(2) 0.006(2) 0.0373(19) 0.009(2) 
C78 0.104(3) 0.112(3) 0.107(3) 0.011(3) 0.049(2) -0.029(2) 
C79 0.111(3) 0.091(3) 0.076(2) 0.013(2) 0.011(2) -0.027(2) 
C80 0.070(2) 0.072(2) 0.059(2) 0.0044(17) 0.0168(18) 0.0055(18) 
O12 0.0860(17) 0.0415(13) 0.0773(16) -0.0014(12) 0.0503(14) 0.0083(12) 
C81 0.108(3) 0.048(2) 0.083(2) -0.0001(18) 0.046(2) -0.0036(19) 
C82 0.156(3) 0.067(2) 0.093(3) -0.020(2) 0.059(2) -0.024(2) 
C83 0.138(3) 0.077(3) 0.092(3) -0.025(2) 0.058(2) -0.007(2) 
C84 0.109(3) 0.074(2) 0.090(3) -0.025(2) 0.060(2) -0.004(2) 
O13 0.0426(13) 0.0536(14) 0.0469(14) 0.0029(11) 0.0141(11) -0.0068(11) 
C85 0.061(2) 0.082(3) 0.060(2) 0.009(2) 0.029(2) 0.011(2) 
C86 0.078(3) 0.063(3) 0.072(3) 0.011(2) 0.020(2) -0.014(2) 
C87 0.099(3) 0.051(2) 0.060(3) 0.015(2) 0.012(2) -0.004(2) 
C88 0.066(3) 0.060(2) 0.054(2) 0.0082(19) 0.018(2) 0.019(2) 
O14 0.0544(15) 0.0556(15) 0.0548(15) -0.0036(12) 0.0299(13) -0.0017(12) 
C89 0.057(2) 0.072(3) 0.043(2) -0.0051(18) 0.0179(18) 0.005(2) 
C90 0.112(4) 0.068(3) 0.082(3) 0.019(3) 0.043(3) 0.005(3) 
C91 0.086(3) 0.063(3) 0.137(5) 0.006(3) 0.052(3) -0.011(3) 
C92 0.050(2) 0.093(3) 0.059(3) -0.013(2) 0.010(2) 0.003(2) 
  
_geom_special_details 
;
All e.s.d.'s (except the e.s.d. in the dihedral angle between two l.s. planes)
are estimated using the full covariance matrix. The cell e.s.d.'s are taken
into account individually in the estimation of e.s.d.'s in distances, angles
and torsion angles; correlations between e.s.d.'s in cell parameters are only
used when they are defined by crystal symmetry. An approximate (isotropic)
treatment of cell e.s.d.'s is used for estimating e.s.d.'s involving l.s.
planes.
; 
  
loop_ 
 _geom_bond_atom_site_label_1 
 _geom_bond_atom_site_label_2 
 _geom_bond_distance 
 _geom_bond_site_symmetry_2 
 _geom_bond_publ_flag 
Cu1 C34 1.793(3) . y 
Cu1 N1 2.078(2) . y 
Cu1 N4 2.062(2) . y 
Cu1 N7 2.069(2) . y 
Cu2 C68 1.798(3) . y 
Cu2 N10 2.068(2) . y 
Cu2 N13 2.063(2) . y 
Cu2 N16 2.075(2) . y 
B1 N2 1.544(4) . ? 
B1 N5 1.548(4) . ? 
B1 N8 1.556(4) . ? 
B1 H1 1.0000 . ? 
B2 N11 1.548(4) . ? 
B2 N17 1.551(4) . ? 
B2 N14 1.552(4) . ? 
B2 H2 1.0000 . ? 
N1 C1 1.340(3) . ? 
N1 N2 1.364(3) . ? 
N2 C3 1.363(3) . ? 
N3 C4 1.363(4) . ? 
N3 C10 1.420(4) . ? 
N3 H3A 0.817(18) . ? 
N4 C12 1.339(3) . ? 
N4 N5 1.364(3) . ? 
N5 C14 1.355(3) . ? 
N6 C15 1.358(4) . ? 
N6 C21 1.419(4) . ? 
N6 H6A 0.812(18) . ? 
N7 C23 1.338(3) . ? 
N7 N8 1.364(3) . ? 
N8 C25 1.359(3) . ? 
N9 C26 1.352(4) . ? 
N9 C32 1.421(4) . ? 
N9 H9A 0.816(18) . ? 
N10 C35 1.344(3) . ? 
N10 N11 1.364(3) . ? 
N11 C37 1.356(3) . ? 
N12 C38 1.358(3) . ? 
N12 C44 1.414(3) . ? 
N12 H12A 0.814(17) . ? 
N13 C46 1.341(3) . ? 
N13 N14 1.364(3) . ? 
N14 C48 1.362(3) . ? 
N15 C49 1.355(4) . ? 
N15 C55 1.413(4) . ? 
N15 H15A 0.827(18) . ? 
N16 C57 1.342(3) . ? 
N16 N17 1.362(3) . ? 
N17 C59 1.364(3) . ? 
N18 C60 1.360(4) . ? 
N18 C66 1.418(4) . ? 
N18 H18A 0.813(17) . ? 
O1 C4 1.217(3) . ? 
O2 C15 1.220(3) . ? 
O3 C26 1.221(3) . ? 
O4 C34 1.134(3) . y 
O5 C38 1.217(3) . ? 
O6 C49 1.219(3) . ? 
O7 C60 1.222(3) . ? 
O8 C68 1.128(4) . y 
C1 C2 1.398(4) . ? 
C1 C4 1.490(4) . ? 
C2 C3 1.369(4) . ? 
C2 H2A 0.9500 . ? 
C3 C11 1.498(4) . ? 
C5 C6 1.389(4) . ? 
C5 C10 1.391(4) . ? 
C5 H5 0.9500 . ? 
C6 C7 1.382(5) . ? 
C6 H6 0.9500 . ? 
C7 C8 1.379(5) . ? 
C7 H7 0.9500 . ? 
C8 C9 1.380(4) . ? 
C8 H8 0.9500 . ? 
C9 C10 1.390(4) . ? 
C9 H9 0.9500 . ? 
C11 H11A 0.9800 . ? 
C11 H11B 0.9800 . ? 
C11 H11C 0.9800 . ? 
C12 C13 1.389(4) . ? 
C12 C15 1.496(4) . ? 
C13 C14 1.382(4) . ? 
C13 H13 0.9500 . ? 
C14 C22 1.505(4) . ? 
C16 C21 1.366(4) . ? 
C16 C17 1.391(4) . ? 
C16 H16 0.9500 . ? 
C17 C18 1.370(5) . ? 
C17 H17 0.9500 . ? 
C18 C19 1.365(5) . ? 
C18 H18 0.9500 . ? 
C19 C20 1.378(5) . ? 
C19 H19 0.9500 . ? 
C20 C21 1.392(4) . ? 
C20 H20 0.9500 . ? 
C22 H22A 0.9800 . ? 
C22 H22B 0.9800 . ? 
C22 H22C 0.9800 . ? 
C23 C24 1.403(4) . ? 
C23 C26 1.494(4) . ? 
C24 C25 1.380(4) . ? 
C24 H24 0.9500 . ? 
C25 C33 1.498(4) . ? 
C27 C28 1.385(4) . ? 
C27 C32 1.388(4) . ? 
C27 H27 0.9500 . ? 
C28 C29 1.365(5) . ? 
C28 H28 0.9500 . ? 
C29 C30 1.387(5) . ? 
C29 H29 0.9500 . ? 
C30 C31 1.389(5) . ? 
C30 H30 0.9500 . ? 
C31 C32 1.376(4) . ? 
C31 H31 0.9500 . ? 
C33 H33A 0.9800 . ? 
C33 H33B 0.9800 . ? 
C33 H33C 0.9800 . ? 
C35 C36 1.391(4) . ? 
C35 C38 1.493(4) . ? 
C36 C37 1.378(4) . ? 
C36 H36 0.9500 . ? 
C37 C45 1.497(4) . ? 
C39 C44 1.381(4) . ? 
C39 C40 1.393(4) . ? 
C39 H39 0.9500 . ? 
C40 C41 1.376(4) . ? 
C40 H40 0.9500 . ? 
C41 C42 1.370(4) . ? 
C41 H41 0.9500 . ? 
C42 C43 1.383(4) . ? 
C42 H42 0.9500 . ? 
C43 C44 1.395(4) . ? 
C43 H43 0.9500 . ? 
C45 H45A 0.9800 . ? 
C45 H45B 0.9800 . ? 
C45 H45C 0.9800 . ? 
C46 C47 1.398(4) . ? 
C46 C49 1.491(4) . ? 
C47 C48 1.384(4) . ? 
C47 H47 0.9500 . ? 
C48 C56 1.493(4) . ? 
C50 C51 1.385(4) . ? 
C50 C55 1.391(4) . ? 
C50 H50 0.9500 . ? 
C51 C52 1.365(5) . ? 
C51 H51 0.9500 . ? 
C52 C53 1.381(5) . ? 
C52 H52 0.9500 . ? 
C53 C54 1.393(5) . ? 
C53 H53 0.9500 . ? 
C54 C55 1.386(4) . ? 
C54 H54 0.9500 . ? 
C56 H56A 0.9800 . ? 
C56 H56B 0.9800 . ? 
C56 H56C 0.9800 . ? 
C57 C58 1.389(4) . ? 
C57 C60 1.497(4) . ? 
C58 C59 1.373(4) . ? 
C58 H58 0.9500 . ? 
C59 C67 1.493(4) . ? 
C61 C66 1.387(4) . ? 
C61 C62 1.397(4) . ? 
C61 H61 0.9500 . ? 
C62 C63 1.374(5) . ? 
C62 H62 0.9500 . ? 
C63 C64 1.377(5) . ? 
C63 H63 0.9500 . ? 
C64 C65 1.381(4) . ? 
C64 H64 0.9500 . ? 
C65 C66 1.389(4) . ? 
C65 H65 0.9500 . ? 
C67 H67A 0.9800 . ? 
C67 H67B 0.9800 . ? 
C67 H67C 0.9800 . ? 
O9 C72 1.394(4) . ? 
O9 C69 1.427(4) . ? 
C69 C70 1.449(5) . ? 
C69 H69A 0.9900 . ? 
C69 H69B 0.9900 . ? 
C70 C71 1.487(5) . ? 
C70 H70A 0.9900 . ? 
C70 H70B 0.9900 . ? 
C71 C72 1.477(5) . ? 
C71 H71A 0.9900 . ? 
C71 H71B 0.9900 . ? 
C72 H72A 0.9900 . ? 
C72 H72B 0.9900 . ? 
O10 C73 1.389(5) . ? 
O10 C76 1.441(5) . ? 
C73 C74 1.472(5) . ? 
C73 H73A 0.9900 . ? 
C73 H73B 0.9900 . ? 
C74 C75 1.467(6) . ? 
C74 H74A 0.9900 . ? 
C74 H74B 0.9900 . ? 
C75 C76 1.501(6) . ? 
C75 H75A 0.9900 . ? 
C75 H75B 0.9900 . ? 
C76 H76A 0.9900 . ? 
C76 H76B 0.9900 . ? 
O11 C80 1.417(4) . ? 
O11 C77 1.427(4) . ? 
C77 C78 1.488(6) . ? 
C77 H77A 0.9900 . ? 
C77 H77B 0.9900 . ? 
C78 C79 1.454(6) . ? 
C78 H78A 0.9900 . ? 
C78 H78B 0.9900 . ? 
C79 C80 1.458(5) . ? 
C79 H79A 0.9900 . ? 
C79 H79B 0.9900 . ? 
C80 H80A 0.9900 . ? 
C80 H80B 0.9900 . ? 
O12 C84 1.390(4) . ? 
O12 C81 1.429(4) . ? 
C81 C82 1.504(6) . ? 
C81 H81A 0.9900 . ? 
C81 H81B 0.9900 . ? 
C82 C83 1.428(6) . ? 
C82 H82A 0.9900 . ? 
C82 H82B 0.9900 . ? 
C83 C84 1.483(6) . ? 
C83 H83A 0.9900 . ? 
C83 H83B 0.9900 . ? 
C84 H84A 0.9900 . ? 
C84 H84B 0.9900 . ? 
O13 C88 1.421(4) . ? 
O13 C85 1.434(4) . ? 
C85 C86 1.519(5) . ? 
C85 H85A 0.9900 . ? 
C85 H85B 0.9900 . ? 
C86 C87 1.495(5) . ? 
C86 H86A 0.9900 . ? 
C86 H86B 0.9900 . ? 
C87 C88 1.472(5) . ? 
C87 H87A 0.9900 . ? 
C87 H87B 0.9900 . ? 
C88 H88A 0.9900 . ? 
C88 H88B 0.9900 . ? 
O14 C92 1.417(4) . ? 
O14 C89 1.420(4) . ? 
C89 C90 1.474(5) . ? 
C89 H89A 0.9900 . ? 
C89 H89B 0.9900 . ? 
C90 C91 1.505(6) . ? 
C90 H90A 0.9900 . ? 
C90 H90B 0.9900 . ? 
C91 C92 1.497(6) . ? 
C91 H91A 0.9900 . ? 
C91 H91B 0.9900 . ? 
C92 H92A 0.9900 . ? 
C92 H92B 0.9900 . ? 
  
loop_ 
 _geom_angle_atom_site_label_1 
 _geom_angle_atom_site_label_2 
 _geom_angle_atom_site_label_3 
 _geom_angle 
 _geom_angle_site_symmetry_1 
 _geom_angle_site_symmetry_3 
 _geom_angle_publ_flag 
C34 Cu1 N4 126.82(12) . . ? 
C34 Cu1 N7 124.53(11) . . ? 
N4 Cu1 N7 90.05(9) . . ? 
C34 Cu1 N1 124.14(11) . . ? 
N4 Cu1 N1 91.36(9) . . ? 
N7 Cu1 N1 88.90(9) . . ? 
C68 Cu2 N13 127.77(13) . . ? 
C68 Cu2 N10 124.04(12) . . ? 
N13 Cu2 N10 89.94(9) . . ? 
C68 Cu2 N16 124.63(12) . . ? 
N13 Cu2 N16 87.90(9) . . ? 
N10 Cu2 N16 91.29(9) . . ? 
N2 B1 N5 109.7(2) . . ? 
N2 B1 N8 108.0(2) . . ? 
N5 B1 N8 109.8(2) . . ? 
N2 B1 H1 109.8 . . ? 
N5 B1 H1 109.8 . . ? 
N8 B1 H1 109.8 . . ? 
N11 B2 N17 108.9(2) . . ? 
N11 B2 N14 109.0(2) . . ? 
N17 B2 N14 109.4(2) . . ? 
N11 B2 H2 109.8 . . ? 
N17 B2 H2 109.8 . . ? 
N14 B2 H2 109.8 . . ? 
C1 N1 N2 106.3(2) . . ? 
C1 N1 Cu1 138.6(2) . . ? 
N2 N1 Cu1 114.93(16) . . ? 
C3 N2 N1 110.1(2) . . ? 
C3 N2 B1 130.1(2) . . ? 
N1 N2 B1 119.7(2) . . ? 
C4 N3 C10 127.7(3) . . ? 
C4 N3 H3A 118(2) . . ? 
C10 N3 H3A 114(2) . . ? 
C12 N4 N5 106.1(2) . . ? 
C12 N4 Cu1 138.38(19) . . ? 
N5 N4 Cu1 115.42(17) . . ? 
C14 N5 N4 110.2(2) . . ? 
C14 N5 B1 130.2(2) . . ? 
N4 N5 B1 119.6(2) . . ? 
C15 N6 C21 127.1(2) . . ? 
C15 N6 H6A 114(2) . . ? 
C21 N6 H6A 119(2) . . ? 
C23 N7 N8 106.4(2) . . ? 
C23 N7 Cu1 137.44(19) . . ? 
N8 N7 Cu1 115.38(17) . . ? 
C25 N8 N7 110.1(2) . . ? 
C25 N8 B1 130.5(2) . . ? 
N7 N8 B1 119.3(2) . . ? 
C26 N9 C32 127.3(2) . . ? 
C26 N9 H9A 119(2) . . ? 
C32 N9 H9A 113(2) . . ? 
C35 N10 N11 105.3(2) . . ? 
C35 N10 Cu2 138.35(19) . . ? 
N11 N10 Cu2 116.30(16) . . ? 
C37 N11 N10 111.1(2) . . ? 
C37 N11 B2 130.0(2) . . ? 
N10 N11 B2 118.9(2) . . ? 
C38 N12 C44 127.2(3) . . ? 
C38 N12 H12A 119(2) . . ? 
C44 N12 H12A 114(2) . . ? 
C46 N13 N14 106.5(2) . . ? 
C46 N13 Cu2 137.5(2) . . ? 
N14 N13 Cu2 115.92(17) . . ? 
C48 N14 N13 110.4(2) . . ? 
C48 N14 B2 130.2(2) . . ? 
N13 N14 B2 119.4(2) . . ? 
C49 N15 C55 127.6(3) . . ? 
C49 N15 H15A 122(2) . . ? 
C55 N15 H15A 110(2) . . ? 
C57 N16 N17 106.2(2) . . ? 
C57 N16 Cu2 138.52(19) . . ? 
N17 N16 Cu2 115.28(16) . . ? 
N16 N17 C59 110.2(2) . . ? 
N16 N17 B2 119.8(2) . . ? 
C59 N17 B2 129.8(2) . . ? 
C60 N18 C66 127.5(3) . . ? 
C60 N18 H18A 115(2) . . ? 
C66 N18 H18A 117(2) . . ? 
N1 C1 C2 110.1(3) . . ? 
N1 C1 C4 118.2(2) . . ? 
C2 C1 C4 131.5(3) . . ? 
C3 C2 C1 105.9(3) . . ? 
C3 C2 H2A 127.0 . . ? 
C1 C2 H2A 127.0 . . ? 
N2 C3 C2 107.5(3) . . ? 
N2 C3 C11 122.6(3) . . ? 
C2 C3 C11 129.9(3) . . ? 
O1 C4 N3 123.3(3) . . ? 
O1 C4 C1 121.9(3) . . ? 
N3 C4 C1 114.8(3) . . ? 
C6 C5 C10 119.2(3) . . ? 
C6 C5 H5 120.4 . . ? 
C10 C5 H5 120.4 . . ? 
C7 C6 C5 121.4(3) . . ? 
C7 C6 H6 119.3 . . ? 
C5 C6 H6 119.3 . . ? 
C8 C7 C6 119.1(3) . . ? 
C8 C7 H7 120.5 . . ? 
C6 C7 H7 120.5 . . ? 
C7 C8 C9 120.4(3) . . ? 
C7 C8 H8 119.8 . . ? 
C9 C8 H8 119.8 . . ? 
C8 C9 C10 120.6(3) . . ? 
C8 C9 H9 119.7 . . ? 
C10 C9 H9 119.7 . . ? 
C9 C10 C5 119.3(3) . . ? 
C9 C10 N3 116.7(3) . . ? 
C5 C10 N3 124.0(3) . . ? 
C3 C11 H11A 109.5 . . ? 
C3 C11 H11B 109.5 . . ? 
H11A C11 H11B 109.5 . . ? 
C3 C11 H11C 109.5 . . ? 
H11A C11 H11C 109.5 . . ? 
H11B C11 H11C 109.5 . . ? 
N4 C12 C13 110.6(3) . . ? 
N4 C12 C15 119.5(2) . . ? 
C13 C12 C15 129.7(3) . . ? 
C14 C13 C12 105.4(3) . . ? 
C14 C13 H13 127.3 . . ? 
C12 C13 H13 127.3 . . ? 
N5 C14 C13 107.6(3) . . ? 
N5 C14 C22 122.7(3) . . ? 
C13 C14 C22 129.6(3) . . ? 
O2 C15 N6 123.9(3) . . ? 
O2 C15 C12 121.2(3) . . ? 
N6 C15 C12 114.9(3) . . ? 
C21 C16 C17 120.2(3) . . ? 
C21 C16 H16 119.9 . . ? 
C17 C16 H16 119.9 . . ? 
C18 C17 C16 121.4(3) . . ? 
C18 C17 H17 119.3 . . ? 
C16 C17 H17 119.3 . . ? 
C19 C18 C17 118.4(3) . . ? 
C19 C18 H18 120.8 . . ? 
C17 C18 H18 120.8 . . ? 
C18 C19 C20 121.0(3) . . ? 
C18 C19 H19 119.5 . . ? 
C20 C19 H19 119.5 . . ? 
C19 C20 C21 120.7(3) . . ? 
C19 C20 H20 119.7 . . ? 
C21 C20 H20 119.7 . . ? 
C16 C21 C20 118.3(3) . . ? 
C16 C21 N6 124.0(3) . . ? 
C20 C21 N6 117.6(3) . . ? 
C14 C22 H22A 109.5 . . ? 
C14 C22 H22B 109.5 . . ? 
H22A C22 H22B 109.5 . . ? 
C14 C22 H22C 109.5 . . ? 
H22A C22 H22C 109.5 . . ? 
H22B C22 H22C 109.5 . . ? 
N7 C23 C24 110.5(2) . . ? 
N7 C23 C26 118.2(2) . . ? 
C24 C23 C26 131.2(3) . . ? 
C25 C24 C23 105.1(3) . . ? 
C25 C24 H24 127.5 . . ? 
C23 C24 H24 127.5 . . ? 
N8 C25 C24 107.9(2) . . ? 
N8 C25 C33 122.8(3) . . ? 
C24 C25 C33 129.2(3) . . ? 
O3 C26 N9 124.3(3) . . ? 
O3 C26 C23 120.9(3) . . ? 
N9 C26 C23 114.8(3) . . ? 
C28 C27 C32 119.9(3) . . ? 
C28 C27 H27 120.0 . . ? 
C32 C27 H27 120.0 . . ? 
C29 C28 C27 121.0(3) . . ? 
C29 C28 H28 119.5 . . ? 
C27 C28 H28 119.5 . . ? 
C28 C29 C30 119.4(3) . . ? 
C28 C29 H29 120.3 . . ? 
C30 C29 H29 120.3 . . ? 
C29 C30 C31 120.0(4) . . ? 
C29 C30 H30 120.0 . . ? 
C31 C30 H30 120.0 . . ? 
C32 C31 C30 120.5(3) . . ? 
C32 C31 H31 119.8 . . ? 
C30 C31 H31 119.8 . . ? 
C31 C32 C27 119.2(3) . . ? 
C31 C32 N9 117.6(3) . . ? 
C27 C32 N9 123.2(3) . . ? 
C25 C33 H33A 109.5 . . ? 
C25 C33 H33B 109.5 . . ? 
H33A C33 H33B 109.5 . . ? 
C25 C33 H33C 109.5 . . ? 
H33A C33 H33C 109.5 . . ? 
H33B C33 H33C 109.5 . . ? 
O4 C34 Cu1 177.8(3) . . y 
N10 C35 C36 110.8(2) . . ? 
N10 C35 C38 119.4(2) . . ? 
C36 C35 C38 129.8(3) . . ? 
C37 C36 C35 105.7(3) . . ? 
C37 C36 H36 127.1 . . ? 
C35 C36 H36 127.1 . . ? 
N11 C37 C36 107.1(2) . . ? 
N11 C37 C45 123.5(3) . . ? 
C36 C37 C45 129.4(3) . . ? 
O5 C38 N12 124.5(3) . . ? 
O5 C38 C35 123.2(2) . . ? 
N12 C38 C35 112.3(3) . . ? 
C44 C39 C40 119.0(3) . . ? 
C44 C39 H39 120.5 . . ? 
C40 C39 H39 120.5 . . ? 
C41 C40 C39 121.5(3) . . ? 
C41 C40 H40 119.2 . . ? 
C39 C40 H40 119.2 . . ? 
C42 C41 C40 119.1(3) . . ? 
C42 C41 H41 120.5 . . ? 
C40 C41 H41 120.5 . . ? 
C41 C42 C43 120.7(3) . . ? 
C41 C42 H42 119.7 . . ? 
C43 C42 H42 119.7 . . ? 
C42 C43 C44 120.1(3) . . ? 
C42 C43 H43 119.9 . . ? 
C44 C43 H43 119.9 . . ? 
C39 C44 C43 119.5(3) . . ? 
C39 C44 N12 123.7(3) . . ? 
C43 C44 N12 116.8(3) . . ? 
C37 C45 H45A 109.5 . . ? 
C37 C45 H45B 109.5 . . ? 
H45A C45 H45B 109.5 . . ? 
C37 C45 H45C 109.5 . . ? 
H45A C45 H45C 109.5 . . ? 
H45B C45 H45C 109.5 . . ? 
N13 C46 C47 110.1(3) . . ? 
N13 C46 C49 117.9(3) . . ? 
C47 C46 C49 131.9(3) . . ? 
C48 C47 C46 105.8(3) . . ? 
C48 C47 H47 127.1 . . ? 
C46 C47 H47 127.1 . . ? 
N14 C48 C47 107.2(2) . . ? 
N14 C48 C56 123.4(3) . . ? 
C47 C48 C56 129.5(3) . . ? 
O6 C49 N15 124.1(3) . . ? 
O6 C49 C46 120.9(3) . . ? 
N15 C49 C46 114.9(3) . . ? 
C51 C50 C55 120.0(3) . . ? 
C51 C50 H50 120.0 . . ? 
C55 C50 H50 120.0 . . ? 
C52 C51 C50 121.2(4) . . ? 
C52 C51 H51 119.4 . . ? 
C50 C51 H51 119.4 . . ? 
C51 C52 C53 119.6(4) . . ? 
C51 C52 H52 120.2 . . ? 
C53 C52 H52 120.2 . . ? 
C52 C53 C54 119.7(4) . . ? 
C52 C53 H53 120.2 . . ? 
C54 C53 H53 120.2 . . ? 
C55 C54 C53 120.9(3) . . ? 
C55 C54 H54 119.6 . . ? 
C53 C54 H54 119.6 . . ? 
C54 C55 C50 118.5(3) . . ? 
C54 C55 N15 117.7(3) . . ? 
C50 C55 N15 123.8(3) . . ? 
C48 C56 H56A 109.5 . . ? 
C48 C56 H56B 109.5 . . ? 
H56A C56 H56B 109.5 . . ? 
C48 C56 H56C 109.5 . . ? 
H56A C56 H56C 109.5 . . ? 
H56B C56 H56C 109.5 . . ? 
N16 C57 C58 110.3(3) . . ? 
N16 C57 C60 118.8(2) . . ? 
C58 C57 C60 130.9(3) . . ? 
C59 C58 C57 106.2(2) . . ? 
C59 C58 H58 126.9 . . ? 
C57 C58 H58 126.9 . . ? 
N17 C59 C58 107.2(2) . . ? 
N17 C59 C67 123.1(3) . . ? 
C58 C59 C67 129.7(3) . . ? 
O7 C60 N18 124.1(3) . . ? 
O7 C60 C57 121.7(3) . . ? 
N18 C60 C57 114.3(3) . . ? 
C66 C61 C62 119.2(3) . . ? 
C66 C61 H61 120.4 . . ? 
C62 C61 H61 120.4 . . ? 
C63 C62 C61 121.4(3) . . ? 
C63 C62 H62 119.3 . . ? 
C61 C62 H62 119.3 . . ? 
C62 C63 C64 119.0(3) . . ? 
C62 C63 H63 120.5 . . ? 
C64 C63 H63 120.5 . . ? 
C63 C64 C65 120.6(3) . . ? 
C63 C64 H64 119.7 . . ? 
C65 C64 H64 119.7 . . ? 
C64 C65 C66 120.7(3) . . ? 
C64 C65 H65 119.7 . . ? 
C66 C65 H65 119.7 . . ? 
C61 C66 C65 119.2(3) . . ? 
C61 C66 N18 123.6(3) . . ? 
C65 C66 N18 117.2(3) . . ? 
C59 C67 H67A 109.5 . . ? 
C59 C67 H67B 109.5 . . ? 
H67A C67 H67B 109.5 . . ? 
C59 C67 H67C 109.5 . . ? 
H67A C67 H67C 109.5 . . ? 
H67B C67 H67C 109.5 . . ? 
O8 C68 Cu2 178.8(3) . . y 
C72 O9 C69 108.6(3) . . ? 
O9 C69 C70 108.4(3) . . ? 
O9 C69 H69A 110.0 . . ? 
C70 C69 H69A 110.0 . . ? 
O9 C69 H69B 110.0 . . ? 
C70 C69 H69B 110.0 . . ? 
H69A C69 H69B 108.4 . . ? 
C69 C70 C71 106.4(3) . . ? 
C69 C70 H70A 110.5 . . ? 
C71 C70 H70A 110.5 . . ? 
C69 C70 H70B 110.5 . . ? 
C71 C70 H70B 110.5 . . ? 
H70A C70 H70B 108.6 . . ? 
C72 C71 C70 103.7(3) . . ? 
C72 C71 H71A 111.0 . . ? 
C70 C71 H71A 111.0 . . ? 
C72 C71 H71B 111.0 . . ? 
C70 C71 H71B 111.0 . . ? 
H71A C71 H71B 109.0 . . ? 
O9 C72 C71 109.5(3) . . ? 
O9 C72 H72A 109.8 . . ? 
C71 C72 H72A 109.8 . . ? 
O9 C72 H72B 109.8 . . ? 
C71 C72 H72B 109.8 . . ? 
H72A C72 H72B 108.2 . . ? 
C73 O10 C76 102.5(3) . . ? 
O10 C73 C74 106.0(4) . . ? 
O10 C73 H73A 110.5 . . ? 
C74 C73 H73A 110.5 . . ? 
O10 C73 H73B 110.5 . . ? 
C74 C73 H73B 110.5 . . ? 
H73A C73 H73B 108.7 . . ? 
C75 C74 C73 104.6(4) . . ? 
C75 C74 H74A 110.8 . . ? 
C73 C74 H74A 110.8 . . ? 
C75 C74 H74B 110.8 . . ? 
C73 C74 H74B 110.8 . . ? 
H74A C74 H74B 108.9 . . ? 
C74 C75 C76 104.1(4) . . ? 
C74 C75 H75A 110.9 . . ? 
C76 C75 H75A 110.9 . . ? 
C74 C75 H75B 110.9 . . ? 
C76 C75 H75B 110.9 . . ? 
H75A C75 H75B 109.0 . . ? 
O10 C76 C75 104.8(3) . . ? 
O10 C76 H76A 110.8 . . ? 
C75 C76 H76A 110.8 . . ? 
O10 C76 H76B 110.8 . . ? 
C75 C76 H76B 110.8 . . ? 
H76A C76 H76B 108.9 . . ? 
C80 O11 C77 109.1(3) . . ? 
O11 C77 C78 104.5(3) . . ? 
O11 C77 H77A 110.9 . . ? 
C78 C77 H77A 110.9 . . ? 
O11 C77 H77B 110.9 . . ? 
C78 C77 H77B 110.9 . . ? 
H77A C77 H77B 108.9 . . ? 
C79 C78 C77 106.1(4) . . ? 
C79 C78 H78A 110.5 . . ? 
C77 C78 H78A 110.5 . . ? 
C79 C78 H78B 110.5 . . ? 
C77 C78 H78B 110.5 . . ? 
H78A C78 H78B 108.7 . . ? 
C78 C79 C80 106.7(4) . . ? 
C78 C79 H79A 110.4 . . ? 
C80 C79 H79A 110.4 . . ? 
C78 C79 H79B 110.4 . . ? 
C80 C79 H79B 110.4 . . ? 
H79A C79 H79B 108.6 . . ? 
O11 C80 C79 107.7(3) . . ? 
O11 C80 H80A 110.2 . . ? 
C79 C80 H80A 110.2 . . ? 
O11 C80 H80B 110.2 . . ? 
C79 C80 H80B 110.2 . . ? 
H80A C80 H80B 108.5 . . ? 
C84 O12 C81 108.1(3) . . ? 
O12 C81 C82 106.0(3) . . ? 
O12 C81 H81A 110.5 . . ? 
C82 C81 H81A 110.5 . . ? 
O12 C81 H81B 110.5 . . ? 
C82 C81 H81B 110.5 . . ? 
H81A C81 H81B 108.7 . . ? 
C83 C82 C81 107.4(4) . . ? 
C83 C82 H82A 110.2 . . ? 
C81 C82 H82A 110.2 . . ? 
C83 C82 H82B 110.2 . . ? 
C81 C82 H82B 110.2 . . ? 
H82A C82 H82B 108.5 . . ? 
C82 C83 C84 103.6(4) . . ? 
C82 C83 H83A 111.1 . . ? 
C84 C83 H83A 111.1 . . ? 
C82 C83 H83B 111.0 . . ? 
C84 C83 H83B 111.1 . . ? 
H83A C83 H83B 109.0 . . ? 
O12 C84 C83 108.5(4) . . ? 
O12 C84 H84A 110.0 . . ? 
C83 C84 H84A 110.0 . . ? 
O12 C84 H84B 110.0 . . ? 
C83 C84 H84B 110.0 . . ? 
H84A C84 H84B 108.4 . . ? 
C88 O13 C85 109.9(3) . . ? 
O13 C85 C86 104.4(3) . . ? 
O13 C85 H85A 110.9 . . ? 
C86 C85 H85A 110.9 . . ? 
O13 C85 H85B 110.9 . . ? 
C86 C85 H85B 110.9 . . ? 
H85A C85 H85B 108.9 . . ? 
C87 C86 C85 102.5(3) . . ? 
C87 C86 H86A 111.3 . . ? 
C85 C86 H86A 111.3 . . ? 
C87 C86 H86B 111.3 . . ? 
C85 C86 H86B 111.3 . . ? 
H86A C86 H86B 109.2 . . ? 
C88 C87 C86 103.8(3) . . ? 
C88 C87 H87A 111.0 . . ? 
C86 C87 H87A 111.0 . . ? 
C88 C87 H87B 111.0 . . ? 
C86 C87 H87B 111.0 . . ? 
H87A C87 H87B 109.0 . . ? 
O13 C88 C87 107.3(3) . . ? 
O13 C88 H88A 110.3 . . ? 
C87 C88 H88A 110.3 . . ? 
O13 C88 H88B 110.3 . . ? 
C87 C88 H88B 110.3 . . ? 
H88A C88 H88B 108.5 . . ? 
C92 O14 C89 106.4(3) . . ? 
O14 C89 C90 106.7(3) . . ? 
O14 C89 H89A 110.4 . . ? 
C90 C89 H89A 110.4 . . ? 
O14 C89 H89B 110.4 . . ? 
C90 C89 H89B 110.4 . . ? 
H89A C89 H89B 108.6 . . ? 
C89 C90 C91 104.8(3) . . ? 
C89 C90 H90A 110.8 . . ? 
C91 C90 H90A 110.8 . . ? 
C89 C90 H90B 110.8 . . ? 
C91 C90 H90B 110.8 . . ? 
H90A C90 H90B 108.9 . . ? 
C92 C91 C90 105.1(3) . . ? 
C92 C91 H91A 110.7 . . ? 
C90 C91 H91A 110.7 . . ? 
C92 C91 H91B 110.7 . . ? 
C90 C91 H91B 110.7 . . ? 
H91A C91 H91B 108.8 . . ? 
O14 C92 C91 106.2(3) . . ? 
O14 C92 H92A 110.5 . . ? 
C91 C92 H92A 110.5 . . ? 
O14 C92 H92B 110.5 . . ? 
C91 C92 H92B 110.5 . . ? 
H92A C92 H92B 108.7 . . ? 
  
loop_ 
 _geom_torsion_atom_site_label_1 
 _geom_torsion_atom_site_label_2 
 _geom_torsion_atom_site_label_3 
 _geom_torsion_atom_site_label_4 
 _geom_torsion 
 _geom_torsion_site_symmetry_1 
 _geom_torsion_site_symmetry_2 
 _geom_torsion_site_symmetry_3 
 _geom_torsion_site_symmetry_4 
 _geom_torsion_publ_flag 
C34 Cu1 N1 C1 3.7(3) . . . . ? 
N4 Cu1 N1 C1 -134.1(3) . . . . ? 
N7 Cu1 N1 C1 135.9(3) . . . . ? 
C34 Cu1 N1 N2 178.08(18) . . . . ? 
N4 Cu1 N1 N2 40.31(18) . . . . ? 
N7 Cu1 N1 N2 -49.71(18) . . . . ? 
C1 N1 N2 C3 -0.2(3) . . . . ? 
Cu1 N1 N2 C3 -176.33(18) . . . . ? 
C1 N1 N2 B1 -177.5(2) . . . . ? 
Cu1 N1 N2 B1 6.4(3) . . . . ? 
N5 B1 N2 C3 120.0(3) . . . . ? 
N8 B1 N2 C3 -120.4(3) . . . . ? 
N5 B1 N2 N1 -63.4(3) . . . . ? 
N8 B1 N2 N1 56.3(3) . . . . ? 
C34 Cu1 N4 C12 1.9(3) . . . . ? 
N7 Cu1 N4 C12 -133.2(3) . . . . ? 
N1 Cu1 N4 C12 137.9(3) . . . . ? 
C34 Cu1 N4 N5 178.81(18) . . . . ? 
N7 Cu1 N4 N5 43.69(18) . . . . ? 
N1 Cu1 N4 N5 -45.22(18) . . . . ? 
C12 N4 N5 C14 -0.9(3) . . . . ? 
Cu1 N4 N5 C14 -178.78(18) . . . . ? 
C12 N4 N5 B1 -179.3(2) . . . . ? 
Cu1 N4 N5 B1 2.9(3) . . . . ? 
N2 B1 N5 C14 -120.4(3) . . . . ? 
N8 B1 N5 C14 121.0(3) . . . . ? 
N2 B1 N5 N4 57.5(3) . . . . ? 
N8 B1 N5 N4 -61.0(3) . . . . ? 
C34 Cu1 N7 C23 7.0(3) . . . . ? 
N4 Cu1 N7 C23 143.7(3) . . . . ? 
N1 Cu1 N7 C23 -124.9(3) . . . . ? 
C34 Cu1 N7 N8 175.19(18) . . . . ? 
N4 Cu1 N7 N8 -48.09(18) . . . . ? 
N1 Cu1 N7 N8 43.27(18) . . . . ? 
C23 N7 N8 C25 0.2(3) . . . . ? 
Cu1 N7 N8 C25 -171.56(17) . . . . ? 
C23 N7 N8 B1 177.0(2) . . . . ? 
Cu1 N7 N8 B1 5.3(3) . . . . ? 
N2 B1 N8 C25 112.1(3) . . . . ? 
N5 B1 N8 C25 -128.3(3) . . . . ? 
N2 B1 N8 N7 -64.0(3) . . . . ? 
N5 B1 N8 N7 55.6(3) . . . . ? 
C68 Cu2 N10 C35 4.4(3) . . . . ? 
N13 Cu2 N10 C35 -133.2(3) . . . . ? 
N16 Cu2 N10 C35 138.9(3) . . . . ? 
C68 Cu2 N10 N11 -177.40(19) . . . . ? 
N13 Cu2 N10 N11 45.01(18) . . . . ? 
N16 Cu2 N10 N11 -42.88(18) . . . . ? 
C35 N10 N11 C37 -0.2(3) . . . . ? 
Cu2 N10 N11 C37 -178.97(18) . . . . ? 
C35 N10 N11 B2 178.0(2) . . . . ? 
Cu2 N10 N11 B2 -0.7(3) . . . . ? 
N17 B2 N11 C37 -122.0(3) . . . . ? 
N14 B2 N11 C37 118.7(3) . . . . ? 
N17 B2 N11 N10 60.1(3) . . . . ? 
N14 B2 N11 N10 -59.1(3) . . . . ? 
C68 Cu2 N13 C46 3.7(3) . . . . ? 
N10 Cu2 N13 C46 138.7(3) . . . . ? 
N16 Cu2 N13 C46 -130.0(3) . . . . ? 
C68 Cu2 N13 N14 -178.18(18) . . . . ? 
N10 Cu2 N13 N14 -43.17(18) . . . . ? 
N16 Cu2 N13 N14 48.12(18) . . . . ? 
C46 N13 N14 C48 -1.5(3) . . . . ? 
Cu2 N13 N14 C48 179.84(16) . . . . ? 
C46 N13 N14 B2 176.4(2) . . . . ? 
Cu2 N13 N14 B2 -2.3(3) . . . . ? 
N11 B2 N14 C48 -121.3(3) . . . . ? 
N17 B2 N14 C48 119.7(3) . . . . ? 
N11 B2 N14 N13 61.3(3) . . . . ? 
N17 B2 N14 N13 -57.6(3) . . . . ? 
C68 Cu2 N16 C57 -3.9(3) . . . . ? 
N13 Cu2 N16 C57 132.1(3) . . . . ? 
N10 Cu2 N16 C57 -138.0(3) . . . . ? 
C68 Cu2 N16 N17 173.81(18) . . . . ? 
N13 Cu2 N16 N17 -50.17(18) . . . . ? 
N10 Cu2 N16 N17 39.71(18) . . . . ? 
C57 N16 N17 C59 0.7(3) . . . . ? 
Cu2 N16 N17 C59 -177.73(17) . . . . ? 
C57 N16 N17 B2 -175.4(2) . . . . ? 
Cu2 N16 N17 B2 6.2(3) . . . . ? 
N11 B2 N17 N16 -64.0(3) . . . . ? 
N14 B2 N17 N16 55.1(3) . . . . ? 
N11 B2 N17 C59 120.9(3) . . . . ? 
N14 B2 N17 C59 -120.1(3) . . . . ? 
N2 N1 C1 C2 -0.3(3) . . . . ? 
Cu1 N1 C1 C2 174.4(2) . . . . ? 
N2 N1 C1 C4 176.4(2) . . . . ? 
Cu1 N1 C1 C4 -8.9(4) . . . . ? 
N1 C1 C2 C3 0.6(3) . . . . ? 
C4 C1 C2 C3 -175.4(3) . . . . ? 
N1 N2 C3 C2 0.6(3) . . . . ? 
B1 N2 C3 C2 177.5(3) . . . . ? 
N1 N2 C3 C11 -179.3(3) . . . . ? 
B1 N2 C3 C11 -2.4(5) . . . . ? 
C1 C2 C3 N2 -0.7(3) . . . . ? 
C1 C2 C3 C11 179.2(3) . . . . ? 
C10 N3 C4 O1 1.1(5) . . . . ? 
C10 N3 C4 C1 -179.7(3) . . . . ? 
N1 C1 C4 O1 -5.2(4) . . . . ? 
C2 C1 C4 O1 170.5(3) . . . . ? 
N1 C1 C4 N3 175.6(3) . . . . ? 
C2 C1 C4 N3 -8.6(5) . . . . ? 
C10 C5 C6 C7 -0.1(5) . . . . ? 
C5 C6 C7 C8 0.0(5) . . . . ? 
C6 C7 C8 C9 0.3(5) . . . . ? 
C7 C8 C9 C10 -0.4(5) . . . . ? 
C8 C9 C10 C5 0.2(5) . . . . ? 
C8 C9 C10 N3 -179.4(3) . . . . ? 
C6 C5 C10 C9 0.0(4) . . . . ? 
C6 C5 C10 N3 179.7(3) . . . . ? 
C4 N3 C10 C9 179.5(3) . . . . ? 
C4 N3 C10 C5 -0.2(5) . . . . ? 
N5 N4 C12 C13 0.7(3) . . . . ? 
Cu1 N4 C12 C13 177.7(2) . . . . ? 
N5 N4 C12 C15 176.7(2) . . . . ? 
Cu1 N4 C12 C15 -6.2(4) . . . . ? 
N4 C12 C13 C14 -0.2(3) . . . . ? 
C15 C12 C13 C14 -175.7(3) . . . . ? 
N4 N5 C14 C13 0.8(3) . . . . ? 
B1 N5 C14 C13 179.0(3) . . . . ? 
N4 N5 C14 C22 -177.2(3) . . . . ? 
B1 N5 C14 C22 0.9(5) . . . . ? 
C12 C13 C14 N5 -0.4(3) . . . . ? 
C12 C13 C14 C22 177.4(3) . . . . ? 
C21 N6 C15 O2 -5.1(5) . . . . ? 
C21 N6 C15 C12 175.4(3) . . . . ? 
N4 C12 C15 O2 -29.9(4) . . . . ? 
C13 C12 C15 O2 145.3(3) . . . . ? 
N4 C12 C15 N6 149.5(3) . . . . ? 
C13 C12 C15 N6 -35.3(4) . . . . ? 
C21 C16 C17 C18 -0.3(5) . . . . ? 
C16 C17 C18 C19 0.8(5) . . . . ? 
C17 C18 C19 C20 -0.9(6) . . . . ? 
C18 C19 C20 C21 0.6(6) . . . . ? 
C17 C16 C21 C20 0.0(5) . . . . ? 
C17 C16 C21 N6 -178.4(3) . . . . ? 
C19 C20 C21 C16 -0.1(5) . . . . ? 
C19 C20 C21 N6 178.4(3) . . . . ? 
C15 N6 C21 C16 -16.3(5) . . . . ? 
C15 N6 C21 C20 165.2(3) . . . . ? 
N8 N7 C23 C24 -0.1(3) . . . . ? 
Cu1 N7 C23 C24 168.8(2) . . . . ? 
N8 N7 C23 C26 177.1(2) . . . . ? 
Cu1 N7 C23 C26 -14.0(4) . . . . ? 
N7 C23 C24 C25 0.0(3) . . . . ? 
C26 C23 C24 C25 -176.8(3) . . . . ? 
N7 N8 C25 C24 -0.1(3) . . . . ? 
B1 N8 C25 C24 -176.5(3) . . . . ? 
N7 N8 C25 C33 177.3(3) . . . . ? 
B1 N8 C25 C33 0.9(5) . . . . ? 
C23 C24 C25 N8 0.1(3) . . . . ? 
C23 C24 C25 C33 -177.1(3) . . . . ? 
C32 N9 C26 O3 -2.0(5) . . . . ? 
C32 N9 C26 C23 177.6(3) . . . . ? 
N7 C23 C26 O3 -24.3(4) . . . . ? 
C24 C23 C26 O3 152.3(3) . . . . ? 
N7 C23 C26 N9 156.0(3) . . . . ? 
C24 C23 C26 N9 -27.4(4) . . . . ? 
C32 C27 C28 C29 0.4(5) . . . . ? 
C27 C28 C29 C30 -1.1(6) . . . . ? 
C28 C29 C30 C31 0.5(7) . . . . ? 
C29 C30 C31 C32 0.6(7) . . . . ? 
C30 C31 C32 C27 -1.3(5) . . . . ? 
C30 C31 C32 N9 178.2(4) . . . . ? 
C28 C27 C32 C31 0.7(5) . . . . ? 
C28 C27 C32 N9 -178.7(3) . . . . ? 
C26 N9 C32 C31 172.3(3) . . . . ? 
C26 N9 C32 C27 -8.2(5) . . . . ? 
N11 N10 C35 C36 0.2(3) . . . . ? 
Cu2 N10 C35 C36 178.5(2) . . . . ? 
N11 N10 C35 C38 -177.9(2) . . . . ? 
Cu2 N10 C35 C38 0.4(4) . . . . ? 
N10 C35 C36 C37 -0.1(3) . . . . ? 
C38 C35 C36 C37 177.8(3) . . . . ? 
N10 N11 C37 C36 0.1(3) . . . . ? 
B2 N11 C37 C36 -177.8(3) . . . . ? 
N10 N11 C37 C45 179.8(3) . . . . ? 
B2 N11 C37 C45 1.8(5) . . . . ? 
C35 C36 C37 N11 0.0(3) . . . . ? 
C35 C36 C37 C45 -179.7(3) . . . . ? 
C44 N12 C38 O5 -2.6(5) . . . . ? 
C44 N12 C38 C35 176.5(3) . . . . ? 
N10 C35 C38 O5 -23.9(4) . . . . ? 
C36 C35 C38 O5 158.4(3) . . . . ? 
N10 C35 C38 N12 157.0(3) . . . . ? 
C36 C35 C38 N12 -20.7(4) . . . . ? 
C44 C39 C40 C41 0.0(5) . . . . ? 
C39 C40 C41 C42 0.1(5) . . . . ? 
C40 C41 C42 C43 0.1(5) . . . . ? 
C41 C42 C43 C44 -0.4(5) . . . . ? 
C40 C39 C44 C43 -0.4(4) . . . . ? 
C40 C39 C44 N12 179.2(3) . . . . ? 
C42 C43 C44 C39 0.6(4) . . . . ? 
C42 C43 C44 N12 -179.0(3) . . . . ? 
C38 N12 C44 C39 18.4(5) . . . . ? 
C38 N12 C44 C43 -162.0(3) . . . . ? 
N14 N13 C46 C47 1.1(3) . . . . ? 
Cu2 N13 C46 C47 179.4(2) . . . . ? 
N14 N13 C46 C49 179.6(2) . . . . ? 
Cu2 N13 C46 C49 -2.1(4) . . . . ? 
N13 C46 C47 C48 -0.4(3) . . . . ? 
C49 C46 C47 C48 -178.6(3) . . . . ? 
N13 N14 C48 C47 1.2(3) . . . . ? 
B2 N14 C48 C47 -176.3(3) . . . . ? 
N13 N14 C48 C56 -179.2(2) . . . . ? 
B2 N14 C48 C56 3.2(4) . . . . ? 
C46 C47 C48 N14 -0.5(3) . . . . ? 
C46 C47 C48 C56 180.0(3) . . . . ? 
C55 N15 C49 O6 1.8(5) . . . . ? 
C55 N15 C49 C46 -177.0(3) . . . . ? 
N13 C46 C49 O6 -34.7(4) . . . . ? 
C47 C46 C49 O6 143.5(3) . . . . ? 
N13 C46 C49 N15 144.2(3) . . . . ? 
C47 C46 C49 N15 -37.6(5) . . . . ? 
C55 C50 C51 C52 -1.3(6) . . . . ? 
C50 C51 C52 C53 -0.2(6) . . . . ? 
C51 C52 C53 C54 0.4(7) . . . . ? 
C52 C53 C54 C55 0.8(7) . . . . ? 
C53 C54 C55 C50 -2.1(6) . . . . ? 
C53 C54 C55 N15 179.5(4) . . . . ? 
C51 C50 C55 C54 2.4(5) . . . . ? 
C51 C50 C55 N15 -179.4(3) . . . . ? 
C49 N15 C55 C54 173.5(3) . . . . ? 
C49 N15 C55 C50 -4.7(5) . . . . ? 
N17 N16 C57 C58 -0.6(3) . . . . ? 
Cu2 N16 C57 C58 177.2(2) . . . . ? 
N17 N16 C57 C60 177.8(2) . . . . ? 
Cu2 N16 C57 C60 -4.4(4) . . . . ? 
N16 C57 C58 C59 0.3(3) . . . . ? 
C60 C57 C58 C59 -177.8(3) . . . . ? 
N16 N17 C59 C58 -0.5(3) . . . . ? 
B2 N17 C59 C58 175.0(3) . . . . ? 
N16 N17 C59 C67 179.7(2) . . . . ? 
B2 N17 C59 C67 -4.8(4) . . . . ? 
C57 C58 C59 N17 0.2(3) . . . . ? 
C57 C58 C59 C67 180.0(3) . . . . ? 
C66 N18 C60 O7 0.8(5) . . . . ? 
C66 N18 C60 C57 179.5(3) . . . . ? 
N16 C57 C60 O7 23.1(4) . . . . ? 
C58 C57 C60 O7 -158.9(3) . . . . ? 
N16 C57 C60 N18 -155.6(3) . . . . ? 
C58 C57 C60 N18 22.3(4) . . . . ? 
C66 C61 C62 C63 0.4(5) . . . . ? 
C61 C62 C63 C64 -1.2(5) . . . . ? 
C62 C63 C64 C65 0.9(5) . . . . ? 
C63 C64 C65 C66 0.2(5) . . . . ? 
C62 C61 C66 C65 0.7(5) . . . . ? 
C62 C61 C66 N18 -177.9(3) . . . . ? 
C64 C65 C66 C61 -1.0(5) . . . . ? 
C64 C65 C66 N18 177.7(3) . . . . ? 
C60 N18 C66 C61 -9.5(5) . . . . ? 
C60 N18 C66 C65 171.9(3) . . . . ? 
C72 O9 C69 C70 -3.6(5) . . . . ? 
O9 C69 C70 C71 14.2(5) . . . . ? 
C69 C70 C71 C72 -18.6(5) . . . . ? 
C69 O9 C72 C71 -8.7(5) . . . . ? 
C70 C71 C72 O9 16.9(5) . . . . ? 
C76 O10 C73 C74 -42.4(5) . . . . ? 
O10 C73 C74 C75 29.0(5) . . . . ? 
C73 C74 C75 C76 -3.9(5) . . . . ? 
C73 O10 C76 C75 39.3(5) . . . . ? 
C74 C75 C76 O10 -21.1(5) . . . . ? 
C80 O11 C77 C78 -23.8(5) . . . . ? 
O11 C77 C78 C79 24.0(6) . . . . ? 
C77 C78 C79 C80 -15.7(6) . . . . ? 
C77 O11 C80 C79 14.4(5) . . . . ? 
C78 C79 C80 O11 1.3(6) . . . . ? 
C84 O12 C81 C82 8.2(5) . . . . ? 
O12 C81 C82 C83 8.5(6) . . . . ? 
C81 C82 C83 C84 -20.4(6) . . . . ? 
C81 O12 C84 C83 -21.5(5) . . . . ? 
C82 C83 C84 O12 26.3(6) . . . . ? 
C88 O13 C85 C86 -16.7(4) . . . . ? 
O13 C85 C86 C87 31.3(4) . . . . ? 
C85 C86 C87 C88 -34.1(4) . . . . ? 
C85 O13 C88 C87 -5.0(4) . . . . ? 
C86 C87 C88 O13 25.0(4) . . . . ? 
C92 O14 C89 C90 -33.7(4) . . . . ? 
O14 C89 C90 C91 22.3(5) . . . . ? 
C89 C90 C91 C92 -3.4(5) . . . . ? 
C89 O14 C92 C91 31.1(4) . . . . ? 
C90 C91 C92 O14 -16.6(5) . . . . ? 
  
loop_ 
 _geom_hbond_atom_site_label_D 
 _geom_hbond_atom_site_label_H 
 _geom_hbond_atom_site_label_A 
 _geom_hbond_distance_DH 
 _geom_hbond_distance_HA 
 _geom_hbond_distance_DA 
 _geom_hbond_angle_DHA 
 _geom_hbond_site_symmetry_A 
N3 H3A O9  0.817(18) 2.213(19) 3.011(3) 165(3) . 
N6 H6A O10  0.812(18) 2.27(2) 3.043(3) 159(3) . 
N9 H9A O11  0.816(18) 2.186(19) 2.986(3) 167(3) . 
N12 H12A O12  0.814(17) 2.22(2) 3.001(3) 162(3) . 
N15 H15A O13  0.827(18) 2.140(19) 2.947(3) 165(3) . 
N18 H18A O14  0.813(17) 2.194(19) 2.987(3) 165(3) . 
  
_diffrn_measured_fraction_theta_max    0.989 
_diffrn_reflns_theta_full              25.00 
_diffrn_measured_fraction_theta_full   1.000 
_refine_diff_density_max    0.601 
_refine_diff_density_min   -0.493 
_refine_diff_density_rms    0.059 

_iucr_refine_instructions_details
;

TITL kla0343 in P-1
CELL 0.71073  13.1310  19.4036  19.7708  97.840 107.809  97.599
ZERR    4.00   0.0015   0.0022   0.0022   0.002   0.002   0.002
LATT 1
SFAC C  H  N  O  B  Cu
UNIT 184  220  36  28  4  4
OMIT 0 -1 1
OMIT  0 0 1
OMIT -1 0 1
L.S. 8
ACTA 50
BOND $H
FMAP 2
PLAN 20
SIZE 0.162 0.287 0.288
CONF
WPDB
DELU 0.005 O12 C81 C82 C83 C84
DELU 0.005 O11 C77 C78 C79 C80
SIMU 0.005 O12 C81 C82 C83 C84
SIMU 0.005 O11 C77 C78 C79 C80
 
SADI N3 H3A N6 H6A N9 H9A N12 H12A N15 H15A N18 H18A
 
TEMP -73.150
HTAB N3 O9
HTAB N6 O10
HTAB N9 O11
HTAB N12 O12
HTAB N15 O13
HTAB N18 O14
WGHT    0.058000    0.627200
FVAR       0.08609
CU1   6    0.520946    0.118786    0.763429    11.00000    0.03431    0.03138 =
         0.03440    0.00980    0.01445    0.00598
CU2   6    0.970633    0.598462    0.735915    11.00000    0.02769    0.03230 =
         0.03978    0.00942    0.01563    0.00595
B1    5    0.636838    0.260641    0.748713    11.00000    0.03959    0.03252 =
         0.03566    0.01306    0.01745    0.00432
AFIX  13
H1    2    0.674548    0.307089    0.743947    11.00000   -1.20000
AFIX   0
B2    5    1.079429    0.731728    0.699223    11.00000    0.02530    0.03119 =
         0.03830    0.00906    0.01543    0.00747
AFIX  13
H2    2    1.115204    0.775056    0.687321    11.00000   -1.20000
AFIX   0
N1    3    0.602959    0.132461    0.690057    11.00000    0.03352    0.03272 =
         0.03388    0.00978    0.01371    0.00780
N2    3    0.643372    0.201105    0.690629    11.00000    0.03359    0.03933 =
         0.03309    0.01470    0.01571    0.00919
N3    3    0.611175   -0.021604    0.567271    11.00000    0.04756    0.04286 =
         0.03689    0.00541    0.02147    0.01356
H3A   2    0.638074    0.001024    0.542933    11.00000   -1.20000
N4    3    0.448570    0.205009    0.741899    11.00000    0.03425    0.03095 =
         0.03225    0.00869    0.01420    0.00731
N5    3    0.516151    0.263667    0.739373    11.00000    0.03810    0.03065 =
         0.03653    0.01111    0.01638    0.00674
N6    3    0.179351    0.194265    0.751190    11.00000    0.03768    0.03091 =
         0.03903    0.00257    0.01574    0.00858
H6A   2    0.198462    0.235219    0.772142    11.00000   -1.20000
N7    3    0.651738    0.184286    0.843539    11.00000    0.03418    0.03067 =
         0.03364    0.01043    0.01369    0.00379
N8    3    0.694158    0.243635    0.824292    11.00000    0.03482    0.02960 =
         0.03465    0.00926    0.01562    0.00352
N9    3    0.775393    0.105923    0.994609    11.00000    0.02951    0.03578 =
         0.03764    0.01083    0.00817    0.00265
H9A   2    0.837033    0.126148    1.000732    11.00000   -1.20000
N10   3    0.895938    0.681428    0.703669    11.00000    0.02564    0.03111 =
         0.03771    0.00692    0.01585    0.00422
N11   3    0.958936    0.735599    0.689494    11.00000    0.02640    0.02836 =
         0.03760    0.00833    0.01409    0.00678
N12   3    0.633527    0.689052    0.719666    11.00000    0.02409    0.03431 =
         0.05045    0.00416    0.01696    0.00946
H12A  2    0.645207    0.732064    0.725659    11.00000   -1.20000
N13   3    1.104493    0.669783    0.805575    11.00000    0.02642    0.03709 =
         0.03355    0.00910    0.01291    0.00666
N14   3    1.138652    0.726318    0.778789    11.00000    0.02521    0.03016 =
         0.03641    0.00465    0.01383    0.00425
N15   3    1.245884    0.605617    0.960123    11.00000    0.02939    0.04532 =
         0.04063    0.01380    0.00920    0.00252
H15A  2    1.307275    0.624340    0.961866    11.00000   -1.20000
N16   3    1.046128    0.599432    0.657853    11.00000    0.02733    0.03061 =
         0.03618    0.00573    0.01341    0.00535
N17   3    1.083949    0.664896    0.648091    11.00000    0.02359    0.03193 =
         0.03236    0.00807    0.01268    0.00701
N18   3    1.099578    0.434887    0.581710    11.00000    0.03726    0.03349 =
         0.04277    0.00514    0.01894    0.00854
H18A  2    1.142529    0.456055    0.566063    11.00000   -1.20000
O1    4    0.559473   -0.014202    0.667296    11.00000    0.07645    0.04220 =
         0.05473    0.00776    0.04342    0.01240
O2    4    0.250523    0.106121    0.704231    11.00000    0.04577    0.03503 =
         0.08463   -0.00210    0.02972    0.01005
O3    4    0.595710    0.093708    0.930236    11.00000    0.03081    0.06990 =
         0.05754    0.03397    0.00593   -0.00056
O4    4    0.417903   -0.019745    0.776562    11.00000    0.07525    0.03981 =
         0.06498    0.01492    0.03010   -0.00483
O5    4    0.706649    0.590255    0.704370    11.00000    0.04143    0.03422 =
         0.08161    0.00797    0.03726    0.01020
O6    4    1.062359    0.593130    0.908956    11.00000    0.03328    0.10141 =
         0.06711    0.04913    0.01366    0.00084
O7    4    0.969397    0.452210    0.633363    11.00000    0.05649    0.03872 =
         0.07288    0.00573    0.04198    0.00691
O8    4    0.857976    0.470679    0.763979    11.00000    0.08000    0.05907 =
         0.08780    0.03064    0.03673   -0.00287
 
C1    1    0.623946    0.093113    0.636451    11.00000    0.03107    0.04165 =
         0.03155    0.00942    0.01256    0.01270
C2    1    0.677582    0.136538    0.602236    11.00000    0.03907    0.05361 =
         0.03411    0.01178    0.02024    0.01274
AFIX  43
H2A   2    0.700956    0.121994    0.562454    11.00000   -1.20000
AFIX   0
C3    1    0.689540    0.204319    0.637784    11.00000    0.03643    0.05081 =
         0.03633    0.01639    0.01871    0.01151
C4    1    0.594463    0.014629    0.625875    11.00000    0.03016    0.04354 =
         0.03549    0.00677    0.01159    0.01079
C5    1    0.548730   -0.144827    0.577954    11.00000    0.04554    0.04632 =
         0.03675    0.00379    0.01211    0.01298
AFIX  43
H5    2    0.532409   -0.129234    0.620484    11.00000   -1.20000
AFIX   0
C6    1    0.531153   -0.216603    0.549590    11.00000    0.05714    0.04589 =
         0.04840    0.00815    0.01294    0.00928
AFIX  43
H6    2    0.502745   -0.249994    0.573223    11.00000   -1.20000
AFIX   0
C7    1    0.554126   -0.240437    0.487725    11.00000    0.06006    0.04754 =
         0.05108   -0.00296    0.00953    0.01445
AFIX  43
H7    2    0.541681   -0.289680    0.468920    11.00000   -1.20000
AFIX   0
C8    1    0.595361   -0.191739    0.453685    11.00000    0.05478    0.06084 =
         0.03873   -0.00330    0.01559    0.01797
AFIX  43
H8    2    0.611223   -0.207522    0.411022    11.00000   -1.20000
AFIX   0
C9    1    0.613758   -0.120252    0.481130    11.00000    0.04644    0.05344 =
         0.04220    0.00203    0.01835    0.01464
AFIX  43
H9    2    0.642575   -0.087213    0.457335    11.00000   -1.20000
AFIX   0
C10   1    0.590522   -0.096089    0.543300    11.00000    0.03187    0.04647 =
         0.03453    0.00280    0.00731    0.01485
C11   1    0.742104    0.272712    0.625524    11.00000    0.06562    0.05580 =
         0.05606    0.02100    0.03956    0.00514
AFIX 137
H11A  2    0.689397    0.304564    0.616542    11.00000   -1.50000
H11B  2    0.766563    0.263533    0.583577    11.00000   -1.50000
H11C  2    0.804737    0.294780    0.668432    11.00000   -1.50000
AFIX   0
C12   1    0.350695    0.223077    0.731454    11.00000    0.03632    0.03428 =
         0.02830    0.00591    0.01166    0.00958
C13   1    0.354166    0.292709    0.721369    11.00000    0.04613    0.03594 =
         0.04644    0.01020    0.01968    0.01880
AFIX  43
H13   2    0.295828    0.318144    0.712843    11.00000   -1.20000
AFIX   0
C14   1    0.460393    0.317135    0.726361    11.00000    0.04711    0.03082 =
         0.04083    0.01089    0.01830    0.01229
C15   1    0.255900    0.168572    0.727204    11.00000    0.03782    0.03444 =
         0.03207    0.00853    0.01050    0.01060
C16   1    0.030891    0.090687    0.707075    11.00000    0.04172    0.04739 =
         0.04751    0.00210    0.01778    0.00770
AFIX  43
H16   2    0.066750    0.067932    0.677843    11.00000   -1.20000
AFIX   0
C17   1   -0.069754    0.057535    0.707003    11.00000    0.04507    0.05038 =
         0.05286    0.00306    0.00822   -0.00018
AFIX  43
H17   2   -0.101971    0.012309    0.677350    11.00000   -1.20000
AFIX   0
C18   1   -0.123437    0.088683    0.748766    11.00000    0.03521    0.05828 =
         0.05262    0.02181    0.01243    0.00900
AFIX  43
H18   2   -0.191757    0.065377    0.748803    11.00000   -1.20000
AFIX   0
C19   1   -0.076335    0.154036    0.790325    11.00000    0.05317    0.06330 =
         0.08533    0.00335    0.04052    0.01276
AFIX  43
H19   2   -0.112900    0.176709    0.819105    11.00000   -1.20000
AFIX   0
C20   1    0.023418    0.187636    0.791187    11.00000    0.05615    0.04379 =
         0.07888   -0.00464    0.03688    0.00462
AFIX  43
H20   2    0.055042    0.232934    0.820829    11.00000   -1.20000
AFIX   0
C21   1    0.078337    0.155883    0.749064    11.00000    0.03260    0.03596 =
         0.03533    0.01053    0.01101    0.01145
C22   1    0.511675    0.387830    0.717207    11.00000    0.06579    0.03299 =
         0.08656    0.02303    0.03264    0.01455
AFIX 137
H22A  2    0.564861    0.412873    0.763537    11.00000   -1.50000
H22B  2    0.455180    0.415957    0.700975    11.00000   -1.50000
H22C  2    0.548370    0.380686    0.681150    11.00000   -1.50000
AFIX   0
C23   1    0.719521    0.181221    0.908712    11.00000    0.03322    0.03211 =
         0.03065    0.00661    0.01356    0.00934
C24   1    0.806764    0.238726    0.932146    11.00000    0.03287    0.03628 =
         0.03138    0.00295    0.00934    0.00488
AFIX  43
H24   2    0.865972    0.248989    0.976295    11.00000   -1.20000
AFIX   0
C25   1    0.787918    0.277154    0.877150    11.00000    0.03320    0.02996 =
         0.03827    0.00070    0.01475    0.00359
C26   1    0.690254    0.122702    0.945127    11.00000    0.03686    0.03706 =
         0.02938    0.00680    0.01113    0.00695
C27   1    0.675722    0.019652    1.043796    11.00000    0.04158    0.03429 =
         0.03358    0.00526    0.01061    0.00558
AFIX  43
H27   2    0.607817    0.028887    1.015674    11.00000   -1.20000
AFIX   0
C28   1    0.678830   -0.028710    1.089492    11.00000    0.05223    0.04213 =
         0.04133    0.01154    0.01166   -0.00048
AFIX  43
H28   2    0.612670   -0.052708    1.092188    11.00000   -1.20000
AFIX   0
C29   1    0.775561   -0.042417    1.130730    11.00000    0.06781    0.07128 =
         0.07346    0.04585    0.01119    0.00353
AFIX  43
H29   2    0.776857   -0.075104    1.162515    11.00000   -1.20000
AFIX   0
C30   1    0.871884   -0.008174    1.125772    11.00000    0.05764    0.09398 =
         0.09505    0.06589    0.00269    0.02087
AFIX  43
H30   2    0.939573   -0.017652    1.153950    11.00000   -1.20000
AFIX   0
C31   1    0.869462    0.039975    1.079634    11.00000    0.03883    0.06474 =
         0.06997    0.03553    0.00712    0.00479
AFIX  43
H31   2    0.935602    0.062957    1.076018    11.00000   -1.20000
AFIX   0
C32   1    0.771941    0.054627    1.039121    11.00000    0.04009    0.03337 =
         0.02836    0.00538    0.00607    0.00660
C33   1    0.856344    0.342400    0.870513    11.00000    0.05086    0.03738 =
         0.05618    0.00902    0.01571   -0.00762
AFIX 137
H33A  2    0.886840    0.330803    0.831822    11.00000   -1.50000
H33B  2    0.915659    0.360659    0.916322    11.00000   -1.50000
H33C  2    0.811296    0.378424    0.859054    11.00000   -1.50000
AFIX   0
C34   1    0.456461    0.034539    0.772062    11.00000    0.04235    0.03876 =
         0.03332    0.00673    0.01410    0.00918
C35   1    0.798294    0.700552    0.692908    11.00000    0.02381    0.03280 =
         0.03387    0.00199    0.01197    0.00642
C36   1    0.798686    0.766098    0.671873    11.00000    0.03331    0.04012 =
         0.04624    0.01021    0.01833    0.01725
AFIX  43
H36   2    0.739898    0.791059    0.660987    11.00000   -1.20000
AFIX   0
C37   1    0.902077    0.787305    0.670104    11.00000    0.03435    0.03344 =
         0.04218    0.01133    0.01738    0.01303
C38   1    0.709801    0.653471    0.706317    11.00000    0.02516    0.03849 =
         0.03837    0.00195    0.01286    0.00791
C39   1    0.518475    0.594655    0.749090    11.00000    0.03156    0.05675 =
         0.04573    0.01542    0.01607    0.01438
AFIX  43
H39   2    0.572180    0.565589    0.754389    11.00000   -1.20000
AFIX   0
C40   1    0.420387    0.571703    0.759668    11.00000    0.04154    0.05783 =
         0.05683    0.02365    0.02463    0.00837
AFIX  43
H40   2    0.407726    0.526599    0.772300    11.00000   -1.20000
AFIX   0
C41   1    0.341367    0.612879    0.752238    11.00000    0.02969    0.06828 =
         0.04799   -0.00065    0.02042   -0.00020
AFIX  43
H41   2    0.274927    0.596464    0.759706    11.00000   -1.20000
AFIX   0
C42   1    0.359830    0.677837    0.733932    11.00000    0.02478    0.05910 =
         0.04580   -0.00195    0.01318    0.01170
AFIX  43
H42   2    0.305796    0.706645    0.728795    11.00000   -1.20000
AFIX   0
C43   1    0.456291    0.701932    0.722849    11.00000    0.02833    0.04750 =
         0.04201    0.00183    0.01434    0.01031
AFIX  43
H43   2    0.467944    0.746930    0.709805    11.00000   -1.20000
AFIX   0
C44   1    0.536539    0.660285    0.730785    11.00000    0.02154    0.04393 =
         0.03176    0.00477    0.00995    0.00737
C45   1    0.949405    0.853722    0.651482    11.00000    0.04990    0.04360 =
         0.07325    0.02781    0.03033    0.01694
AFIX 137
H45A  2    1.004798    0.882773    0.694859    11.00000   -1.50000
H45B  2    0.891622    0.880283    0.632955    11.00000   -1.50000
H45C  2    0.982782    0.841596    0.614439    11.00000   -1.50000
AFIX   0
C46   1    1.173382    0.676657    0.873053    11.00000    0.02856    0.04323 =
         0.03343    0.00524    0.01421    0.00871
C47   1    1.251246    0.738598    0.890464    11.00000    0.03191    0.04320 =
         0.03136    0.00048    0.01016    0.00528
AFIX  43
H47   2    1.308933    0.755947    0.934847    11.00000   -1.20000
AFIX   0
C48   1    1.226912    0.769409    0.829679    11.00000    0.02893    0.03098 =
         0.03871   -0.00216    0.01586    0.00540
C49   1    1.154396    0.621518    0.915714    11.00000    0.03481    0.04891 =
         0.03336    0.00795    0.01385    0.00602
C50   1    1.163715    0.513378    1.012540    11.00000    0.04689    0.05279 =
         0.05122    0.01807    0.01803    0.00903
AFIX  43
H50   2    1.092322    0.519543    0.987238    11.00000   -1.20000
AFIX   0
C51   1    1.178451    0.464152    1.057564    11.00000    0.06393    0.05623 =
         0.06129    0.02328    0.02463    0.00385
AFIX  43
H51   2    1.116761    0.437498    1.063566    11.00000   -1.20000
AFIX   0
C52   1    1.279940    0.453223    1.093467    11.00000    0.07070    0.06057 =
         0.06774    0.03261   -0.00194   -0.00966
AFIX  43
H52   2    1.288690    0.419333    1.124253    11.00000   -1.20000
AFIX   0
C53   1    1.369862    0.491720    1.084785    11.00000    0.05713    0.07688 =
         0.08022    0.04259   -0.01888   -0.00458
AFIX  43
H53   2    1.440773    0.484211    1.109328    11.00000   -1.20000
AFIX   0
C54   1    1.356120    0.541622    1.039872    11.00000    0.04348    0.05862 =
         0.06159    0.02540   -0.00234   -0.00794
AFIX  43
H54   2    1.418030    0.567638    1.033531    11.00000   -1.20000
AFIX   0
C55   1    1.253379    0.553810    1.004334    11.00000    0.04164    0.03861 =
         0.03567    0.00603    0.00757    0.00283
C56   1    1.282655    0.836322    0.817233    11.00000    0.04359    0.03654 =
         0.04605    0.00074    0.01320    0.00053
AFIX 137
H56A  2    1.303553    0.826250    0.773883    11.00000   -1.50000
H56B  2    1.347874    0.856317    0.859121    11.00000   -1.50000
H56C  2    1.233137    0.870329    0.810524    11.00000   -1.50000
AFIX   0
C57   1    1.068179    0.552884    0.609950    11.00000    0.02684    0.03535 =
         0.03219    0.00450    0.00967    0.00789
C58   1    1.118970    0.588266    0.569097    11.00000    0.03523    0.04299 =
         0.03383    0.00757    0.01792    0.01421
AFIX  43
H58   2    1.142624    0.567569    0.531518    11.00000   -1.20000
AFIX   0
C59   1    1.128122    0.659181    0.593945    11.00000    0.03004    0.04378 =
         0.02951    0.00999    0.01210    0.01248
C60   1    1.039599    0.475455    0.609414    11.00000    0.03157    0.03844 =
         0.03582    0.00069    0.01191    0.00528
C61   1    1.030982    0.318498    0.604814    11.00000    0.05371    0.04200 =
         0.04802    0.01178    0.01853    0.01191
AFIX  43
H61   2    0.988807    0.338803    0.630804    11.00000   -1.20000
AFIX   0
C62   1    1.032080    0.245959    0.596605    11.00000    0.06847    0.04499 =
         0.05341    0.01713    0.01325    0.00802
AFIX  43
H62   2    0.989857    0.217066    0.617077    11.00000   -1.20000
AFIX   0
C63   1    1.092910    0.215507    0.559561    11.00000    0.06868    0.03714 =
         0.05885    0.00500    0.00432    0.01757
AFIX  43
H63   2    1.093927    0.166253    0.555155    11.00000   -1.20000
AFIX   0
C64   1    1.152390    0.257515    0.528917    11.00000    0.06355    0.04813 =
         0.06641   -0.00054    0.01845    0.02541
AFIX  43
H64   2    1.193941    0.236936    0.502598    11.00000   -1.20000
AFIX   0
C65   1    1.152147    0.329257    0.536118    11.00000    0.05155    0.04698 =
         0.05556    0.00430    0.02270    0.01363
AFIX  43
H65   2    1.193384    0.357553    0.514567    11.00000   -1.20000
AFIX   0
C66   1    1.092273    0.360502    0.574522    11.00000    0.03815    0.03694 =
         0.03558    0.00400    0.00967    0.01062
C67   1    1.176038    0.721748    0.570040    11.00000    0.05776    0.04605 =
         0.04192    0.01671    0.02905    0.01367
AFIX 137
H67A  2    1.119962    0.749806    0.552471    11.00000   -1.50000
H67B  2    1.203709    0.705563    0.531048    11.00000   -1.50000
H67C  2    1.235891    0.750940    0.610911    11.00000   -1.50000
AFIX   0
C68   1    0.902311    0.520142    0.753882    11.00000    0.05126    0.04463 =
         0.06007    0.01961    0.03087    0.01036
 
O9    4    0.734768    0.039762    0.477139    11.00000    0.05589    0.08074 =
         0.05252    0.00871    0.03245    0.01372
C69   1    0.845870    0.031635    0.500245    11.00000    0.06433    0.13899 =
         0.07704    0.04676    0.02598    0.02549
AFIX  23
H69A  2    0.851784   -0.014476    0.515808    11.00000   -1.20000
H69B  2    0.889187    0.069721    0.541713    11.00000   -1.20000
AFIX   0
C70   1    0.886695    0.035125    0.440243    11.00000    0.05197    0.11538 =
         0.05732    0.00960    0.02386    0.01495
AFIX  23
H70A  2    0.893869   -0.012575    0.419242    11.00000   -1.20000
H70B  2    0.958891    0.066500    0.456568    11.00000   -1.20000
AFIX   0
C71   1    0.806096    0.063898    0.385914    11.00000    0.06204    0.05990 =
         0.06497    0.01769    0.03545    0.00851
AFIX  23
H71A  2    0.831326    0.114865    0.388429    11.00000   -1.20000
H71B  2    0.792769    0.038102    0.336333    11.00000   -1.20000
AFIX   0
C72   1    0.707104    0.052513    0.406675    11.00000    0.05992    0.18027 =
         0.07443    0.06331    0.03167    0.02686
AFIX  23
H72A  2    0.672574    0.094867    0.403542    11.00000   -1.20000
H72B  2    0.654325    0.011608    0.373115    11.00000   -1.20000
AFIX   0
O10   4    0.191367    0.339819    0.836407    11.00000    0.08848    0.04159 =
         0.08436   -0.00178    0.02247   -0.00294
C73   1    0.280333    0.386304    0.886532    11.00000    0.07533    0.06508 =
         0.10040    0.01394    0.01180    0.01303
AFIX  23
H73A  2    0.344370    0.362914    0.899718    11.00000   -1.20000
H73B  2    0.263741    0.402843    0.930944    11.00000   -1.20000
AFIX   0
C74   1    0.301777    0.446107    0.851200    11.00000    0.08566    0.07732 =
         0.08633    0.00550    0.04665   -0.01356
AFIX  23
H74A  2    0.331906    0.490683    0.887177    11.00000   -1.20000
H74B  2    0.353798    0.437633    0.825171    11.00000   -1.20000
AFIX   0
C75   1    0.195185    0.449432    0.800521    11.00000    0.10428    0.06757 =
         0.09424    0.02595    0.00985    0.00867
AFIX  23
H75A  2    0.197243    0.445778    0.750536    11.00000   -1.20000
H75B  2    0.171659    0.494182    0.814157    11.00000   -1.20000
AFIX   0
C76   1    0.120532    0.386912    0.806961    11.00000    0.05516    0.12674 =
         0.10080    0.01568    0.00514    0.00259
AFIX  23
H76A  2    0.080092    0.401507    0.839665    11.00000   -1.20000
H76B  2    0.067660    0.363839    0.759029    11.00000   -1.20000
AFIX   0
O11   4    1.009484    0.174606    1.042342    11.00000    0.04763    0.06815 =
         0.05634    0.00706    0.01853   -0.00195
C77   1    1.079250    0.188529    1.000919    11.00000    0.07131    0.09776 =
         0.07596    0.00602    0.03735    0.00856
AFIX  23
H77A  2    1.036698    0.181859    0.948889    11.00000   -1.20000
H77B  2    1.133381    0.156878    1.007183    11.00000   -1.20000
AFIX   0
C78   1    1.133688    0.263736    1.030182    11.00000    0.10431    0.11159 =
         0.10653    0.01065    0.04872   -0.02921
AFIX  23
H78A  2    1.209935    0.270558    1.030560    11.00000   -1.20000
H78B  2    1.094863    0.295297    1.000345    11.00000   -1.20000
AFIX   0
C79   1    1.130141    0.279020    1.103412    11.00000    0.11134    0.09107 =
         0.07553    0.01264    0.01130   -0.02695
AFIX  23
H79A  2    1.108572    0.325484    1.112551    11.00000   -1.20000
H79B  2    1.202501    0.280178    1.139039    11.00000   -1.20000
AFIX   0
C80   1    1.050063    0.222596    1.109392    11.00000    0.06977    0.07161 =
         0.05889    0.00441    0.01683    0.00553
AFIX  23
H80A  2    1.084347    0.198013    1.148772    11.00000   -1.20000
H80B  2    0.990002    0.242434    1.120409    11.00000   -1.20000
AFIX   0
O12   4    0.678857    0.845278    0.777090    11.00000    0.08594    0.04154 =
         0.07734   -0.00142    0.05030    0.00840
C81   1    0.756234    0.906742    0.782727    11.00000    0.10743    0.04773 =
         0.08265   -0.00015    0.04637   -0.00356
AFIX  23
H81A  2    0.738275    0.924570    0.736684    11.00000   -1.20000
H81B  2    0.830437    0.895677    0.794348    11.00000   -1.20000
AFIX   0
C82   1    0.749502    0.960821    0.842610    11.00000    0.15571    0.06711 =
         0.09321   -0.01963    0.05896   -0.02384
AFIX  23
H82A  2    0.822960    0.980087    0.877995    11.00000   -1.20000
H82B  2    0.718167    1.000411    0.822786    11.00000   -1.20000
AFIX   0
C83   1    0.681508    0.926118    0.876730    11.00000    0.13782    0.07745 =
         0.09192   -0.02510    0.05788   -0.00740
AFIX  23
H83A  2    0.632820    0.956954    0.888862    11.00000   -1.20000
H83B  2    0.725554    0.912310    0.921425    11.00000   -1.20000
AFIX   0
C84   1    0.618305    0.862886    0.821429    11.00000    0.10899    0.07428 =
         0.09040   -0.02481    0.06035   -0.00403
AFIX  23
H84A  2    0.603193    0.822853    0.845223    11.00000   -1.20000
H84B  2    0.547955    0.873186    0.792272    11.00000   -1.20000
AFIX   0
O13   4    1.471227    0.680593    0.995079    11.00000    0.04263    0.05351 =
         0.04687    0.00288    0.01405   -0.00686
C85   1    1.533661    0.712335    0.955455    11.00000    0.06090    0.08263 =
         0.06009    0.00879    0.02887    0.01062
AFIX  23
H85A  2    1.487926    0.710013    0.904744    11.00000   -1.20000
H85B  2    1.595722    0.688322    0.955666    11.00000   -1.20000
AFIX   0
C86   1    1.573382    0.788614    0.995240    11.00000    0.07827    0.06260 =
         0.07145    0.01072    0.02015   -0.01432
AFIX  23
H86A  2    1.643998    0.808506    0.990846    11.00000   -1.20000
H86B  2    1.519680    0.818678    0.976793    11.00000   -1.20000
AFIX   0
C87   1    1.584886    0.782232    1.071580    11.00000    0.09881    0.05084 =
         0.05990    0.01474    0.01274   -0.00404
AFIX  23
H87A  2    1.656648    0.770876    1.096534    11.00000   -1.20000
H87B  2    1.576452    0.826615    1.098873    11.00000   -1.20000
AFIX   0
C88   1    1.496162    0.723759    1.064253    11.00000    0.06606    0.05993 =
         0.05392    0.00826    0.01772    0.01945
AFIX  23
H88A  2    1.519288    0.695826    1.102754    11.00000   -1.20000
H88B  2    1.431374    0.742579    1.068366    11.00000   -1.20000
AFIX   0
O14   4    1.271106    0.485678    0.520421    11.00000    0.05434    0.05560 =
         0.05482   -0.00354    0.02983   -0.00164
C89   1    1.270791    0.473358    0.447888    11.00000    0.05695    0.07166 =
         0.04268   -0.00519    0.01776    0.00454
AFIX  23
H89A  2    1.195255    0.459442    0.413909    11.00000   -1.20000
H89B  2    1.311154    0.435002    0.440267    11.00000   -1.20000
AFIX   0
C90   1    1.324098    0.540271    0.435994    11.00000    0.11139    0.06832 =
         0.08167    0.01852    0.04324    0.00450
AFIX  23
H90A  2    1.269345    0.567553    0.412205    11.00000   -1.20000
H90B  2    1.369970    0.531066    0.405477    11.00000   -1.20000
AFIX   0
C91   1    1.392661    0.579713    0.510482    11.00000    0.08531    0.06297 =
         0.13695    0.00544    0.05179   -0.01138
AFIX  23
H91A  2    1.470911    0.586407    0.515631    11.00000   -1.20000
H91B  2    1.372945    0.626683    0.520281    11.00000   -1.20000
AFIX   0
C92   1    1.368357    0.534140    0.560951    11.00000    0.04950    0.09317 =
         0.05863   -0.01255    0.01029    0.00258
AFIX  23
H92A  2    1.428650    0.508563    0.579033    11.00000   -1.20000
H92B  2    1.358462    0.563327    0.602817    11.00000   -1.20000
HKLF 4
 
REM  kla0343 in P-1
REM R1 =  0.0536 for  12780 Fo > 4sig(Fo)  and  0.1027 for all  21442 data
REM   1177 parameters refined using    102 restraints
 
END  
     
WGHT      0.0519      0.9526 
REM Highest difference peak  0.600,  deepest hole -0.492,  1-sigma level  0.059
Q1    1   1.1826  0.2508  1.0724  11.00000  0.05    0.60
Q2    1   0.8047  0.9412  0.8648  11.00000  0.05    0.52
Q3    1   0.6851  0.9588  0.8406  11.00000  0.05    0.49
Q4    1   0.1313  0.4456  0.8248  11.00000  0.05    0.40
Q5    1   0.7057  0.0345  0.3965  11.00000  0.05    0.33
Q6    1   0.8868  0.0833  0.4515  11.00000  0.05    0.29
Q7    1   1.0191  0.7291  0.6980  11.00000  0.05    0.29
Q8    1   0.5361  0.6863  0.7605  11.00000  0.05    0.29
Q9    1   0.2135  0.3543  0.8026  11.00000  0.05    0.29
Q10   1   1.2394  0.2318  1.0969  11.00000  0.05    0.28
Q11   1   0.8161 -0.0123  0.4593  11.00000  0.05    0.28
Q12   1   0.6507  0.9784  0.7902  11.00000  0.05    0.28
Q13   1   1.6374  0.7679  1.0309  11.00000  0.05    0.27
Q14   1   1.5588  0.7252  0.9223  11.00000  0.05    0.26
Q15   1   1.1426  0.2266  0.9857  11.00000  0.05    0.26
Q16   1   0.7589  0.6784  0.6945  11.00000  0.05    0.26
Q17   1   0.6141  0.0562  0.6308  11.00000  0.05    0.26
Q18   1   0.5583  0.6716  0.7122  11.00000  0.05    0.25
Q19   1   0.6748  0.2565  0.7929  11.00000  0.05    0.25
Q20   1   0.4633  0.5913  0.7511  11.00000  0.05    0.25
;
_vrf_PLAT241_compound4
;
PROBLEM: Check High Ueq as Compared to Neighbors for O8
RESPONSE: Atom O8 is the oxygen atom of a carbonyl ligand on one of two
symmetry unique compound molecules. Atom identity is consistent
with synthetic methods and spectroscopic characterization.
;


 
 
data_V
  
_audit_creation_method            SHELXL97 
_chemical_name_systematic 
;\
Carbonyl[tris(3-<i>tert</i>-butylaminocarbonyl-5-methylpyrazol-1-yl-\
\k<i>N</i>^2^)borato]copper(I) tetrahydrofuran hemisolvate
;
_chemical_formula_iupac 
'[Cu (C27 H43 B N9 O3) (C O)], 0.5C4 H8 O'
_chemical_name_common             ? 
_chemical_melting_point           ? 
_chemical_formula_moiety          
 'C28 H43 B Cu N9 O4, 0.5(C4 H8 O)' 
_chemical_formula_sum 
 'C30 H47 B Cu N9 O4.50' 
_chemical_formula_weight          680.12 
  
loop_ 
 _atom_type_symbol 
 _atom_type_description 
 _atom_type_scat_dispersion_real 
 _atom_type_scat_dispersion_imag 
 _atom_type_scat_source 
 'C'  'C'   0.0033   0.0016 
 'International Tables Vol C Tables 4.2.6.8 and 6.1.1.4' 
 'H'  'H'   0.0000   0.0000 
 'International Tables Vol C Tables 4.2.6.8 and 6.1.1.4' 
 'B'  'B'   0.0013   0.0007 
 'International Tables Vol C Tables 4.2.6.8 and 6.1.1.4' 
 'N'  'N'   0.0061   0.0033 
 'International Tables Vol C Tables 4.2.6.8 and 6.1.1.4' 
 'O'  'O'   0.0106   0.0060 
 'International Tables Vol C Tables 4.2.6.8 and 6.1.1.4' 
 'Cu'  'Cu'   0.3201   1.2651 
 'International Tables Vol C Tables 4.2.6.8 and 6.1.1.4' 
  
_symmetry_cell_setting            orthorhombic 
_symmetry_space_group_name_H-M    'P 21 21 21' 
_symmetry_space_group_name_Hall   'P 2ac 2ab'
  
loop_ 
 _symmetry_equiv_pos_as_xyz 
 'x, y, z' 
 '-x+1/2, -y, z+1/2' 
 '-x, y+1/2, -z+1/2' 
 'x+1/2, -y+1/2, -z' 
  
_cell_length_a                    15.1972(11) 
_cell_length_b                    15.7870(11) 
_cell_length_c                    34.902(3) 
_cell_angle_alpha                 90.00 
_cell_angle_beta                  90.00 
_cell_angle_gamma                 90.00 
_cell_volume                      8373.6(10) 
_cell_formula_units_Z             8 
_cell_measurement_temperature     200(2) 
_cell_measurement_reflns_used     9868 
_cell_measurement_theta_min       2.20 
_cell_measurement_theta_max       21.89 
  
_exptl_crystal_description        plate 
_exptl_crystal_colour             colourless 
_exptl_crystal_size_max           0.43 
_exptl_crystal_size_mid           0.15 
_exptl_crystal_size_min           0.12 
_exptl_crystal_density_meas       ? 
_exptl_crystal_density_diffrn     1.079 
_exptl_crystal_density_method     'not measured' 
_exptl_crystal_F_000              2880 
_exptl_absorpt_coefficient_mu     0.562 
_exptl_absorpt_correction_type    multi-scan 
_exptl_absorpt_correction_T_min   0.7925 
_exptl_absorpt_correction_T_max   0.9346 
_exptl_absorpt_process_details    '(APEX2; Bruker, 2007)' 
  
_exptl_special_details 
;
Data collection is performed with four batch runs at \f = 0.00 \% (600 frames),
at \f = 90.00 \% (600 frames), at \f = 180 \% (600 frames) and at \f = 270 \%
(600 frames). Frame width = 0.30 \\& in \w.
; 
  
_diffrn_ambient_temperature       200(2) 
_diffrn_radiation_wavelength      0.71073 
_diffrn_radiation_type            MoK\a 
_diffrn_radiation_source          'fine-focus sealed tube' 
_diffrn_radiation_monochromator   graphite 
_diffrn_measurement_device_type   'Bruker APEXII' 
_diffrn_measurement_method        '\f and \w scans' 
_diffrn_detector_area_resol_mean  8.33 
_diffrn_reflns_number             92865 
_diffrn_reflns_av_R_equivalents   0.0622 
_diffrn_reflns_av_sigmaI/netI     0.0592 
_diffrn_reflns_limit_h_min        -19 
_diffrn_reflns_limit_h_max        19 
_diffrn_reflns_limit_k_min        -20 
_diffrn_reflns_limit_k_max        20 
_diffrn_reflns_limit_l_min        -45 
_diffrn_reflns_limit_l_max        43 
_diffrn_reflns_theta_min          1.74 
_diffrn_reflns_theta_max          27.51 
_reflns_number_total              19225 
_reflns_number_gt                 14552 
_reflns_threshold_expression      I>2sigma(I) 
  
_computing_data_collection        'APEX2 (Bruker, 2007)' 
_computing_cell_refinement        'APEX2 (Bruker, 2007)' 
_computing_data_reduction         'APEX2 (Bruker, 2007)' 
_computing_structure_solution     'SHELXS97 (Sheldrick, 2008)'
_computing_structure_refinement   'SHELXL97 (Sheldrick, 2008)'
_computing_molecular_graphics     'APEX2 (Bruker, 2007)' 
_computing_publication_material   'APEX2 (Bruker, 2007)' 
  
_refine_special_details 
;
Refinement of <i>F</i>^2^ against ALL reflections. The weighted <i>R</i>-factor
<i>wR</i> and goodness of fit <i>S</i> are based on <i>F</i>^2^, conventional
<i>R</i>-factors <i>R</i> are based on <i>F</i>, with <i>F</i> set to zero for
negative <i>F</i>^2^. The threshold expression of <i>F</i>^2^ >
\s(<i>F</i>^2^) is used only for calculating <i>R</i>-factors(gt) <i>etc</i>.
and is not relevant to the choice of reflections for refinement.
<i>R</i>-factors based on <i>F</i>^2^ are statistically about twice as large
as those based on <i>F</i>, and <i>R</i>- factors based on ALL data will be
even larger.
; 
  
_refine_ls_structure_factor_coef  Fsqd 
_refine_ls_matrix_type            full 
_refine_ls_weighting_scheme       calc 
_refine_ls_weighting_details 
 'calc w=1/[\s^2^(Fo^2^)+(0.0791P)^2^] where P=(Fo^2^+2Fc^2^)/3' 
_atom_sites_solution_primary      direct 
_atom_sites_solution_secondary    difmap 
_atom_sites_solution_hydrogens    geom 
_refine_ls_hydrogen_treatment     mixed 
_refine_ls_extinction_method      none 
_refine_ls_extinction_coef        ? 
_refine_ls_abs_structure_details 
 'Flack (1983), <b>???? Friedel pairs</b>' 
_refine_ls_abs_structure_Flack    0.005(9) 
_refine_ls_number_reflns          19225 
_refine_ls_number_parameters      866 
_refine_ls_number_restraints      195 
_refine_ls_R_factor_all           0.0766 
_refine_ls_R_factor_gt            0.0501 
_refine_ls_wR_factor_ref          0.1360 
_refine_ls_wR_factor_gt           0.1232 
_refine_ls_goodness_of_fit_ref    1.032 
_refine_ls_restrained_S_all       1.040 
_refine_ls_shift/su_max           0.004 
_refine_ls_shift/su_mean          0.000 
  
loop_ 
 _atom_site_label 
 _atom_site_type_symbol 
 _atom_site_fract_x 
 _atom_site_fract_y 
 _atom_site_fract_z 
 _atom_site_U_iso_or_equiv 
 _atom_site_adp_type 
 _atom_site_occupancy 
 _atom_site_symmetry_multiplicity 
 _atom_site_calc_flag 
 _atom_site_refinement_flags 
 _atom_site_disorder_assembly 
 _atom_site_disorder_group 
Cu1 Cu 0.60701(3) 0.20388(3) 0.600257(12) 0.03631(11) Uani 1 1 d . . . 
Cu2 Cu 0.93150(2) 0.40805(2) 0.770435(11) 0.02963(9) Uani 1 1 d . . . 
B1 B 0.7234(3) 0.3573(2) 0.61486(12) 0.0351(8) Uani 1 1 d . . . 
H1 H 0.762(2) 0.421(2) 0.6198(10) 0.042 Uiso 1 1 d . . . 
B2 B 0.8342(2) 0.5114(2) 0.83037(11) 0.0298(8) Uani 1 1 d . . . 
H2 H 0.798(2) 0.550(2) 0.8519(10) 0.036 Uiso 1 1 d . . . 
N1 N 0.59377(19) 0.31977(17) 0.57219(8) 0.0389(7) Uani 1 1 d . . . 
N2 N 0.65889(19) 0.37586(18) 0.58148(8) 0.0387(7) Uani 1 1 d . . . 
N3 N 0.61208(18) 0.26984(16) 0.65064(8) 0.0334(6) Uani 1 1 d . . . 
N4 N 0.66989(18) 0.33558(17) 0.65112(8) 0.0347(6) Uani 1 1 d . . . 
N5 N 0.74151(17) 0.20610(17) 0.59452(8) 0.0351(6) Uani 1 1 d . . . 
N6 N 0.78159(18) 0.28061(17) 0.60387(8) 0.0365(6) Uani 1 1 d . . . 
N7 N 0.4245(2) 0.2609(2) 0.54766(10) 0.0555(9) Uani 1 1 d . . . 
H7D H 0.4471 0.2492 0.5703 0.067 Uiso 1 1 calc R . . 
N8 N 0.52122(18) 0.16920(19) 0.73228(9) 0.0433(7) Uani 1 1 d . . . 
H8A H 0.5580 0.1970 0.7471 0.052 Uiso 1 1 calc R . . 
N9 N 0.8165(2) 0.04031(19) 0.53955(9) 0.0451(7) Uani 1 1 d . . . 
H9D H 0.8582 0.0728 0.5300 0.054 Uiso 1 1 calc R . . 
N10 N 0.98176(16) 0.43983(16) 0.82386(8) 0.0288(6) Uani 1 1 d . . . 
N11 N 0.92478(17) 0.48483(15) 0.84655(7) 0.0295(5) Uani 1 1 d . . . 
N12 N 1.20943(17) 0.39671(18) 0.84226(9) 0.0392(7) Uani 1 1 d . . . 
H12A H 1.2141 0.4376 0.8593 0.047 Uiso 1 1 calc R . . 
N13 N 0.81358(16) 0.37040(16) 0.79488(7) 0.0289(6) Uani 1 1 d . . . 
N14 N 0.78097(16) 0.43021(16) 0.81948(8) 0.0298(6) Uani 1 1 d . . . 
N15 N 0.82696(17) 0.21890(16) 0.74718(8) 0.0331(6) Uani 1 1 d . . . 
H15D H 0.8669 0.2592 0.7472 0.040 Uiso 1 1 calc R . . 
N16 N 0.88489(17) 0.53040(15) 0.76233(7) 0.0287(5) Uani 1 1 d . . . 
N17 N 0.84846(16) 0.56556(16) 0.79400(8) 0.0296(6) Uani 1 1 d . . . 
N18 N 0.9519(2) 0.64255(17) 0.67724(8) 0.0414(7) Uani 1 1 d . . . 
H18D H 0.9409 0.6926 0.6872 0.050 Uiso 1 1 calc R . . 
O1 O 0.4436(2) 0.3435(2) 0.49465(8) 0.0638(8) Uani 1 1 d . . . 
O2 O 0.46677(18) 0.16404(19) 0.67130(8) 0.0567(7) Uani 1 1 d . . . 
O3 O 0.73173(19) 0.02037(16) 0.59211(8) 0.0518(7) Uani 1 1 d . . . 
O4 O 0.5199(2) 0.04121(19) 0.58943(11) 0.0747(10) Uani 1 1 d . . . 
O5 O 1.11474(15) 0.32500(14) 0.80374(7) 0.0401(6) Uani 1 1 d . . . 
O6 O 0.69590(15) 0.17853(14) 0.77292(7) 0.0413(6) Uani 1 1 d . . . 
O7 O 0.94309(18) 0.50128(14) 0.68692(7) 0.0440(6) Uani 1 1 d . . . 
O8 O 1.05687(19) 0.35088(18) 0.71194(8) 0.0574(7) Uani 1 1 d . . . 
C1 C 0.5481(2) 0.3548(2) 0.54330(10) 0.0436(9) Uani 1 1 d . . . 
C2 C 0.5844(3) 0.4342(3) 0.53401(12) 0.0558(11) Uani 1 1 d . . . 
H2D H 0.5645 0.4725 0.5149 0.067 Uiso 1 1 calc R . . 
C3 C 0.6545(3) 0.4450(2) 0.55833(12) 0.0501(10) Uani 1 1 d . . . 
C4 C 0.4680(3) 0.3177(2) 0.52631(11) 0.0477(9) Uani 1 1 d . . . 
C5 C 0.3427(3) 0.2158(3) 0.53725(16) 0.0717(14) Uani 1 1 d . . . 
C6 C 0.2685(4) 0.2770(5) 0.5289(2) 0.122(3) Uani 1 1 d D . . 
H6A H 0.2599 0.3145 0.5509 0.184 Uiso 1 1 calc R . . 
H6B H 0.2143 0.2452 0.5240 0.184 Uiso 1 1 calc R . . 
H6C H 0.2833 0.3109 0.5063 0.184 Uiso 1 1 calc R . . 
C7 C 0.3595(5) 0.1614(5) 0.5026(2) 0.122(3) Uani 1 1 d . . . 
H7A H 0.3728 0.1977 0.4805 0.182 Uiso 1 1 calc R . . 
H7B H 0.3070 0.1274 0.4970 0.182 Uiso 1 1 calc R . . 
H7C H 0.4094 0.1238 0.5076 0.182 Uiso 1 1 calc R . . 
C8 C 0.3178(4) 0.1617(5) 0.57115(19) 0.112(2) Uani 1 1 d . . . 
H8C H 0.3679 0.1259 0.5783 0.167 Uiso 1 1 calc R . . 
H8D H 0.2676 0.1258 0.5644 0.167 Uiso 1 1 calc R . . 
H8E H 0.3019 0.1982 0.5928 0.167 Uiso 1 1 calc R . . 
C9 C 0.7176(3) 0.5172(3) 0.56131(16) 0.0771(15) Uani 1 1 d . . . 
H9A H 0.7048 0.5501 0.5845 0.116 Uiso 1 1 calc R . . 
H9B H 0.7117 0.5537 0.5387 0.116 Uiso 1 1 calc R . . 
H9C H 0.7779 0.4953 0.5627 0.116 Uiso 1 1 calc R . . 
C10 C 0.5803(2) 0.2625(2) 0.68609(10) 0.0359(7) Uani 1 1 d . . . 
C11 C 0.6173(2) 0.3242(2) 0.70972(10) 0.0385(8) Uani 1 1 d . . . 
H11 H 0.6053 0.3332 0.7361 0.046 Uiso 1 1 calc R . . 
C12 C 0.6744(2) 0.3689(2) 0.68717(10) 0.0373(8) Uani 1 1 d . . . 
C13 C 0.5171(2) 0.1929(2) 0.69555(11) 0.0394(8) Uani 1 1 d . . . 
C14 C 0.4696(2) 0.1005(3) 0.75021(13) 0.0526(10) Uani 1 1 d . . . 
C15 C 0.4888(3) 0.1068(4) 0.79339(14) 0.0781(16) Uani 1 1 d . . . 
H15A H 0.5517 0.0978 0.7979 0.117 Uiso 1 1 calc R . . 
H15B H 0.4549 0.0635 0.8071 0.117 Uiso 1 1 calc R . . 
H15C H 0.4719 0.1630 0.8027 0.117 Uiso 1 1 calc R . . 
C16 C 0.4995(4) 0.0161(3) 0.73364(19) 0.0853(17) Uani 1 1 d . . . 
H16A H 0.4899 0.0160 0.7059 0.128 Uiso 1 1 calc R . . 
H16B H 0.4656 -0.0299 0.7453 0.128 Uiso 1 1 calc R . . 
H16C H 0.5622 0.0079 0.7390 0.128 Uiso 1 1 calc R . . 
C17 C 0.3714(2) 0.1169(3) 0.74324(16) 0.0742(15) Uani 1 1 d . . . 
H17A H 0.3556 0.1728 0.7534 0.111 Uiso 1 1 calc R . . 
H17B H 0.3365 0.0732 0.7562 0.111 Uiso 1 1 calc R . . 
H17C H 0.3593 0.1154 0.7157 0.111 Uiso 1 1 calc R . . 
C18 C 0.7352(3) 0.4406(2) 0.69717(12) 0.0509(10) Uani 1 1 d . . . 
H18A H 0.7963 0.4226 0.6934 0.076 Uiso 1 1 calc R . . 
H18B H 0.7264 0.4567 0.7240 0.076 Uiso 1 1 calc R . . 
H18C H 0.7227 0.4892 0.6806 0.076 Uiso 1 1 calc R . . 
C19 C 0.8054(2) 0.1521(2) 0.58526(9) 0.0329(7) Uani 1 1 d . . . 
C20 C 0.8878(2) 0.1904(2) 0.58911(10) 0.0421(8) Uani 1 1 d . . . 
H20 H 0.9437 0.1656 0.5844 0.051 Uiso 1 1 calc R . . 
C21 C 0.8707(2) 0.2722(2) 0.60133(11) 0.0402(8) Uani 1 1 d . . . 
C22 C 0.7807(2) 0.0647(2) 0.57262(10) 0.0376(8) Uani 1 1 d . . . 
C23 C 0.7928(3) -0.0362(3) 0.51747(13) 0.0594(11) Uani 1 1 d . . . 
C24 C 0.8465(6) -0.0348(4) 0.48107(17) 0.122(3) Uani 1 1 d . . . 
H24A H 0.8347 0.0178 0.4671 0.183 Uiso 1 1 calc R . . 
H24B H 0.8304 -0.0834 0.4651 0.183 Uiso 1 1 calc R . . 
H24C H 0.9092 -0.0379 0.4875 0.183 Uiso 1 1 calc R . . 
C25 C 0.8132(4) -0.1171(3) 0.54001(16) 0.0801(15) Uani 1 1 d . . . 
H25A H 0.8768 -0.1275 0.5397 0.120 Uiso 1 1 calc R . . 
H25B H 0.7826 -0.1651 0.5282 0.120 Uiso 1 1 calc R . . 
H25C H 0.7934 -0.1104 0.5666 0.120 Uiso 1 1 calc R . . 
C26 C 0.6980(4) -0.0323(4) 0.5071(2) 0.107(2) Uani 1 1 d . . . 
H26A H 0.6622 -0.0342 0.5305 0.160 Uiso 1 1 calc R . . 
H26B H 0.6831 -0.0806 0.4907 0.160 Uiso 1 1 calc R . . 
H26C H 0.6861 0.0206 0.4933 0.160 Uiso 1 1 calc R . . 
C27 C 0.9329(3) 0.3433(2) 0.61030(14) 0.0582(11) Uani 1 1 d . . . 
H27A H 0.9247 0.3891 0.5917 0.087 Uiso 1 1 calc R . . 
H27B H 0.9936 0.3226 0.6089 0.087 Uiso 1 1 calc R . . 
H27C H 0.9211 0.3646 0.6362 0.087 Uiso 1 1 calc R . . 
C28 C 0.5511(2) 0.1050(2) 0.59283(11) 0.0464(9) Uani 1 1 d . . . 
C29 C 1.0560(2) 0.43057(18) 0.84435(9) 0.0308(7) Uani 1 1 d . . . 
C30 C 1.0465(2) 0.4694(2) 0.88013(10) 0.0343(7) Uani 1 1 d . . . 
H30 H 1.0890 0.4722 0.9000 0.041 Uiso 1 1 calc R . . 
C31 C 0.9627(2) 0.5026(2) 0.88055(10) 0.0336(7) Uani 1 1 d . . . 
C32 C 1.1299(2) 0.37986(19) 0.82829(10) 0.0324(7) Uani 1 1 d . . . 
C33 C 1.2911(2) 0.3508(2) 0.83093(12) 0.0470(9) Uani 1 1 d . . . 
C34 C 1.3665(2) 0.3933(3) 0.85349(16) 0.0756(16) Uani 1 1 d . . . 
H34A H 1.3695 0.4535 0.8467 0.113 Uiso 1 1 calc R . . 
H34B H 1.4224 0.3659 0.8470 0.113 Uiso 1 1 calc R . . 
H34C H 1.3555 0.3876 0.8810 0.113 Uiso 1 1 calc R . . 
C35 C 1.3067(3) 0.3598(3) 0.78792(13) 0.0588(11) Uani 1 1 d . . . 
H35A H 1.2579 0.3336 0.7739 0.088 Uiso 1 1 calc R . . 
H35B H 1.3619 0.3316 0.7810 0.088 Uiso 1 1 calc R . . 
H35C H 1.3104 0.4200 0.7812 0.088 Uiso 1 1 calc R . . 
C36 C 1.2843(3) 0.2584(3) 0.84230(15) 0.0619(12) Uani 1 1 d . . . 
H36A H 1.2738 0.2542 0.8699 0.093 Uiso 1 1 calc R . . 
H36B H 1.3393 0.2293 0.8359 0.093 Uiso 1 1 calc R . . 
H36C H 1.2354 0.2319 0.8285 0.093 Uiso 1 1 calc R . . 
C37 C 0.9154(2) 0.5489(3) 0.91214(11) 0.0466(9) Uani 1 1 d . . . 
H37A H 0.8981 0.6053 0.9031 0.070 Uiso 1 1 calc R . . 
H37B H 0.9544 0.5546 0.9343 0.070 Uiso 1 1 calc R . . 
H37C H 0.8627 0.5170 0.9195 0.070 Uiso 1 1 calc R . . 
C38 C 0.7521(2) 0.30944(19) 0.79328(9) 0.0312(7) Uani 1 1 d . . . 
C39 C 0.6808(2) 0.3298(2) 0.81634(11) 0.0400(8) Uani 1 1 d . . . 
H39 H 0.6289 0.2973 0.8201 0.048 Uiso 1 1 calc R . . 
C40 C 0.7006(2) 0.4066(2) 0.83268(9) 0.0349(7) Uani 1 1 d . . . 
C41 C 0.7568(2) 0.22945(19) 0.76966(10) 0.0324(7) Uani 1 1 d . . . 
C42 C 0.8431(2) 0.1441(2) 0.72189(10) 0.0348(7) Uani 1 1 d . . . 
C43 C 0.8546(3) 0.0650(2) 0.74589(12) 0.0472(9) Uani 1 1 d . . . 
H43A H 0.9007 0.0746 0.7651 0.071 Uiso 1 1 calc R . . 
H43B H 0.8715 0.0176 0.7293 0.071 Uiso 1 1 calc R . . 
H43C H 0.7992 0.0516 0.7589 0.071 Uiso 1 1 calc R . . 
C44 C 0.7673(2) 0.1343(2) 0.69322(11) 0.0447(9) Uani 1 1 d . . . 
H44A H 0.7129 0.1214 0.7071 0.067 Uiso 1 1 calc R . . 
H44B H 0.7807 0.0880 0.6754 0.067 Uiso 1 1 calc R . . 
H44C H 0.7600 0.1871 0.6789 0.067 Uiso 1 1 calc R . . 
C45 C 0.9276(2) 0.1632(2) 0.70032(11) 0.0433(8) Uani 1 1 d . . . 
H45A H 0.9194 0.2139 0.6845 0.065 Uiso 1 1 calc R . . 
H45B H 0.9426 0.1151 0.6838 0.065 Uiso 1 1 calc R . . 
H45C H 0.9753 0.1730 0.7187 0.065 Uiso 1 1 calc R . . 
C46 C 0.6465(3) 0.4589(3) 0.85991(12) 0.0501(10) Uani 1 1 d . . . 
H46A H 0.6799 0.4684 0.8835 0.075 Uiso 1 1 calc R . . 
H46B H 0.5918 0.4288 0.8659 0.075 Uiso 1 1 calc R . . 
H46C H 0.6326 0.5135 0.8480 0.075 Uiso 1 1 calc R . . 
C47 C 0.89072(19) 0.59243(18) 0.73619(9) 0.0287(6) Uani 1 1 d . . . 
C48 C 0.8574(2) 0.6683(2) 0.75118(10) 0.0337(7) Uani 1 1 d . . . 
H48 H 0.8536 0.7216 0.7386 0.040 Uiso 1 1 calc R . . 
C49 C 0.83151(19) 0.64917(19) 0.78794(10) 0.0307(7) Uani 1 1 d . . . 
C50 C 0.9306(2) 0.57395(19) 0.69788(9) 0.0321(7) Uani 1 1 d . . . 
C51 C 0.9929(3) 0.6396(2) 0.63868(12) 0.0552(11) Uani 1 1 d . . . 
C52 C 1.0076(5) 0.7326(3) 0.62587(16) 0.099(2) Uani 1 1 d . . . 
H52A H 0.9528 0.7645 0.6289 0.149 Uiso 1 1 calc R . . 
H52B H 1.0258 0.7337 0.5989 0.149 Uiso 1 1 calc R . . 
H52C H 1.0537 0.7584 0.6417 0.149 Uiso 1 1 calc R . . 
C53 C 0.9304(4) 0.5970(3) 0.61043(13) 0.0844(16) Uani 1 1 d . . . 
H53A H 0.9233 0.5373 0.6174 0.127 Uiso 1 1 calc R . . 
H53B H 0.9548 0.6011 0.5845 0.127 Uiso 1 1 calc R . . 
H53C H 0.8731 0.6254 0.6113 0.127 Uiso 1 1 calc R . . 
C54 C 1.0812(4) 0.5928(4) 0.64061(16) 0.0919(18) Uani 1 1 d . . . 
H54A H 1.1177 0.6176 0.6609 0.138 Uiso 1 1 calc R . . 
H54B H 1.1116 0.5981 0.6160 0.138 Uiso 1 1 calc R . . 
H54C H 1.0709 0.5328 0.6462 0.138 Uiso 1 1 calc R . . 
C55 C 0.7926(2) 0.7059(2) 0.81800(11) 0.0446(9) Uani 1 1 d . . . 
H55A H 0.7342 0.6848 0.8252 0.067 Uiso 1 1 calc R . . 
H55B H 0.7873 0.7635 0.8079 0.067 Uiso 1 1 calc R . . 
H55C H 0.8308 0.7063 0.8406 0.067 Uiso 1 1 calc R . . 
C56 C 1.0056(2) 0.3683(2) 0.73386(10) 0.0358(7) Uani 1 1 d . . . 
O100 O 0.3760(6) 0.4008(7) 0.6743(3) 0.161(3) Uani 0.603(6) 1 d PDU A 1 
C101 C 0.3948(11) 0.3669(11) 0.6393(4) 0.165(4) Uani 0.603(6) 1 d PDU A 1 
H10A H 0.3684 0.3098 0.6370 0.198 Uiso 0.603(6) 1 calc PR A 1 
H10B H 0.4593 0.3618 0.6360 0.198 Uiso 0.603(6) 1 calc PR A 1 
C102 C 0.3565(11) 0.4259(13) 0.6091(3) 0.175(4) Uani 0.603(6) 1 d PDU A 1 
H10C H 0.3508 0.3985 0.5837 0.210 Uiso 0.603(6) 1 calc PR A 1 
H10D H 0.3898 0.4796 0.6067 0.210 Uiso 0.603(6) 1 calc PR A 1 
C103 C 0.2672(8) 0.4376(12) 0.6294(4) 0.160(4) Uani 0.603(6) 1 d PDU A 1 
H10E H 0.2298 0.3864 0.6277 0.192 Uiso 0.603(6) 1 calc PR A 1 
H10F H 0.2345 0.4875 0.6198 0.192 Uiso 0.603(6) 1 calc PR A 1 
C104 C 0.3054(10) 0.4517(12) 0.6706(4) 0.150(4) Uani 0.603(6) 1 d PDU A 1 
H10G H 0.3227 0.5116 0.6740 0.180 Uiso 0.603(6) 1 calc PR A 1 
H10H H 0.2606 0.4373 0.6901 0.180 Uiso 0.603(6) 1 calc PR A 1 
O200 O 0.4057(9) 0.5020(11) 0.6273(4) 0.161(3) Uani 0.397(6) 1 d PDU A 2 
C201 C 0.3188(12) 0.5192(12) 0.6326(7) 0.165(4) Uani 0.397(6) 1 d PDU A 2 
H20A H 0.2867 0.5192 0.6080 0.198 Uiso 0.397(6) 1 calc PR A 2 
H20B H 0.3108 0.5749 0.6452 0.198 Uiso 0.397(6) 1 calc PR A 2 
C202 C 0.2857(13) 0.4445(15) 0.6595(7) 0.175(4) Uani 0.397(6) 1 d PDU A 2 
H20C H 0.2213 0.4437 0.6637 0.210 Uiso 0.397(6) 1 calc PR A 2 
H20D H 0.3180 0.4399 0.6841 0.210 Uiso 0.397(6) 1 calc PR A 2 
C203 C 0.3194(12) 0.3799(11) 0.6269(5) 0.160(4) Uani 0.397(6) 1 d PDU A 2 
H20E H 0.2954 0.3913 0.6011 0.192 Uiso 0.397(6) 1 calc PR A 2 
H20F H 0.3136 0.3193 0.6339 0.192 Uiso 0.397(6) 1 calc PR A 2 
C204 C 0.4189(10) 0.4203(12) 0.6346(7) 0.150(4) Uani 0.397(6) 1 d PDU A 2 
H20G H 0.4382 0.4113 0.6614 0.180 Uiso 0.397(6) 1 calc PR A 2 
H20H H 0.4630 0.3956 0.6169 0.180 Uiso 0.397(6) 1 calc PR A 2 
  
loop_ 
 _atom_site_aniso_label 
 _atom_site_aniso_U_11 
 _atom_site_aniso_U_22 
 _atom_site_aniso_U_33 
 _atom_site_aniso_U_23 
 _atom_site_aniso_U_13 
 _atom_site_aniso_U_12 
Cu1 0.0391(2) 0.0342(2) 0.0356(2) 0.00114(18) -0.00449(18) -0.00534(18) 
Cu2 0.02995(18) 0.02632(18) 0.0326(2) -0.00255(16) 0.00338(16) 0.00110(15) 
B1 0.038(2) 0.0279(19) 0.039(2) 0.0021(16) -0.0041(16) -0.0032(15) 
B2 0.0275(17) 0.0275(17) 0.034(2) -0.0020(15) 0.0019(15) 0.0030(14) 
N1 0.0418(16) 0.0401(16) 0.0348(16) 0.0066(12) -0.0044(12) -0.0035(12) 
N2 0.0398(15) 0.0347(15) 0.0416(17) 0.0052(13) -0.0039(13) -0.0049(12) 
N3 0.0323(14) 0.0319(14) 0.0360(16) -0.0002(11) -0.0049(12) -0.0019(12) 
N4 0.0355(14) 0.0314(14) 0.0371(16) -0.0038(12) -0.0064(12) 0.0006(12) 
N5 0.0371(14) 0.0319(13) 0.0362(16) 0.0028(12) 0.0001(12) -0.0039(12) 
N6 0.0378(14) 0.0324(14) 0.0393(16) 0.0001(12) -0.0015(13) -0.0047(11) 
N7 0.0501(19) 0.071(2) 0.0451(19) 0.0194(17) -0.0098(15) -0.0095(18) 
N8 0.0318(14) 0.0542(18) 0.0438(18) 0.0068(15) 0.0017(13) -0.0023(13) 
N9 0.059(2) 0.0406(17) 0.0354(17) -0.0039(13) 0.0076(14) -0.0066(15) 
N10 0.0297(13) 0.0224(12) 0.0342(15) -0.0022(11) 0.0010(11) 0.0024(10) 
N11 0.0308(13) 0.0281(13) 0.0296(14) -0.0016(10) 0.0064(11) 0.0003(11) 
N12 0.0313(14) 0.0384(16) 0.0479(17) -0.0139(14) -0.0024(12) 0.0038(12) 
N13 0.0306(13) 0.0259(12) 0.0301(14) -0.0025(11) 0.0014(11) 0.0003(10) 
N14 0.0262(12) 0.0295(14) 0.0336(15) -0.0030(11) 0.0028(11) 0.0008(10) 
N15 0.0285(13) 0.0303(14) 0.0405(16) -0.0038(12) 0.0002(12) -0.0021(11) 
N16 0.0304(13) 0.0254(12) 0.0302(14) -0.0010(10) 0.0021(11) 0.0003(11) 
N17 0.0274(13) 0.0251(13) 0.0364(15) -0.0004(11) 0.0004(11) 0.0006(10) 
N18 0.0584(19) 0.0275(14) 0.0382(17) 0.0014(12) 0.0115(14) -0.0042(13) 
O1 0.071(2) 0.0721(19) 0.0479(17) 0.0212(14) -0.0261(15) -0.0130(16) 
O2 0.0462(15) 0.0686(18) 0.0551(17) 0.0001(15) -0.0063(13) -0.0142(14) 
O3 0.0649(18) 0.0396(14) 0.0510(17) 0.0009(12) 0.0168(14) -0.0115(13) 
O4 0.069(2) 0.0452(17) 0.110(3) -0.0059(17) -0.0029(19) -0.0223(15) 
O5 0.0360(12) 0.0332(12) 0.0511(15) -0.0108(11) -0.0029(11) 0.0015(10) 
O6 0.0383(12) 0.0363(12) 0.0492(15) -0.0042(11) 0.0035(11) -0.0097(10) 
O7 0.0615(16) 0.0287(12) 0.0418(14) -0.0004(10) 0.0083(12) 0.0039(11) 
O8 0.0607(17) 0.0556(16) 0.0558(17) 0.0040(13) 0.0274(15) 0.0164(14) 
C1 0.047(2) 0.047(2) 0.037(2) 0.0078(16) -0.0040(16) -0.0003(17) 
C2 0.067(3) 0.051(2) 0.049(2) 0.0196(18) -0.013(2) -0.003(2) 
C3 0.057(2) 0.040(2) 0.053(2) 0.0162(18) -0.0075(19) -0.0050(18) 
C4 0.051(2) 0.053(2) 0.039(2) 0.0084(17) -0.0092(17) 0.0001(18) 
C5 0.056(3) 0.076(3) 0.084(4) 0.030(3) -0.022(2) -0.017(2) 
C6 0.051(3) 0.133(6) 0.184(7) 0.065(5) -0.033(4) -0.022(3) 
C7 0.156(7) 0.110(5) 0.099(5) 0.009(4) -0.023(5) -0.076(5) 
C8 0.080(4) 0.145(6) 0.109(5) 0.074(5) -0.009(3) -0.040(4) 
C9 0.085(3) 0.054(3) 0.092(4) 0.029(3) -0.028(3) -0.023(2) 
C10 0.0297(16) 0.0392(17) 0.0388(19) -0.0008(14) -0.0021(14) 0.0043(14) 
C11 0.0370(18) 0.0449(19) 0.0336(18) -0.0021(15) -0.0029(15) 0.0090(15) 
C12 0.0388(18) 0.0333(17) 0.040(2) -0.0054(15) -0.0088(15) 0.0090(15) 
C13 0.0303(16) 0.045(2) 0.043(2) -0.0003(17) 0.0034(15) 0.0037(15) 
C14 0.0335(18) 0.060(3) 0.064(3) 0.015(2) 0.0077(18) 0.0000(18) 
C15 0.055(3) 0.109(4) 0.071(3) 0.033(3) 0.013(2) 0.000(3) 
C16 0.080(4) 0.055(3) 0.121(5) 0.018(3) 0.002(3) -0.001(2) 
C17 0.030(2) 0.094(4) 0.098(4) 0.030(3) 0.009(2) 0.000(2) 
C18 0.060(2) 0.042(2) 0.050(2) -0.0100(18) -0.0076(19) -0.0023(18) 
C19 0.0392(18) 0.0316(16) 0.0279(17) 0.0041(13) 0.0038(13) 0.0009(14) 
C20 0.0370(18) 0.043(2) 0.047(2) -0.0009(16) 0.0028(16) 0.0043(16) 
C21 0.0381(18) 0.0435(19) 0.0391(19) 0.0021(16) 0.0032(15) -0.0031(14) 
C22 0.0388(18) 0.0349(18) 0.039(2) 0.0048(15) 0.0012(15) 0.0003(14) 
C23 0.071(3) 0.056(3) 0.051(3) -0.017(2) 0.002(2) -0.007(2) 
C24 0.199(8) 0.101(5) 0.066(4) -0.043(3) 0.045(4) -0.027(5) 
C25 0.103(4) 0.048(3) 0.089(4) -0.019(3) -0.012(3) 0.009(3) 
C26 0.104(5) 0.102(5) 0.114(5) -0.028(4) -0.048(4) -0.010(4) 
C27 0.042(2) 0.049(2) 0.084(3) -0.009(2) -0.003(2) -0.0064(19) 
C28 0.045(2) 0.043(2) 0.051(2) 0.0038(17) -0.0005(16) -0.0055(17) 
C29 0.0297(16) 0.0249(15) 0.0377(18) -0.0016(13) 0.0016(13) -0.0018(12) 
C30 0.0321(17) 0.0365(17) 0.0343(18) -0.0061(14) -0.0036(13) 0.0001(13) 
C31 0.0319(16) 0.0342(17) 0.0347(18) -0.0035(14) -0.0011(14) -0.0053(13) 
C32 0.0338(17) 0.0232(15) 0.0402(19) -0.0015(13) 0.0000(14) 0.0011(12) 
C33 0.0310(17) 0.046(2) 0.064(3) -0.0185(19) 0.0005(17) 0.0076(16) 
C34 0.0296(19) 0.091(4) 0.106(4) -0.050(3) -0.009(2) 0.008(2) 
C35 0.049(2) 0.060(3) 0.068(3) -0.015(2) 0.016(2) -0.006(2) 
C36 0.050(2) 0.059(3) 0.077(3) -0.005(2) -0.007(2) 0.022(2) 
C37 0.039(2) 0.058(2) 0.042(2) -0.0130(17) 0.0027(15) -0.0009(17) 
C38 0.0308(15) 0.0297(16) 0.0333(18) 0.0005(13) -0.0004(13) -0.0036(13) 
C39 0.0339(17) 0.0397(18) 0.046(2) -0.0014(16) 0.0068(15) -0.0094(15) 
C40 0.0326(16) 0.0395(18) 0.0326(18) -0.0024(15) 0.0054(13) -0.0004(15) 
C41 0.0372(17) 0.0303(15) 0.0296(16) 0.0020(14) -0.0085(14) 0.0003(13) 
C42 0.0376(17) 0.0284(16) 0.038(2) -0.0045(14) -0.0043(14) 0.0024(13) 
C43 0.051(2) 0.0378(19) 0.052(2) 0.0005(17) -0.0009(18) 0.0088(16) 
C44 0.045(2) 0.044(2) 0.045(2) -0.0107(17) -0.0121(17) 0.0061(16) 
C45 0.0414(19) 0.0441(19) 0.045(2) -0.0058(16) 0.0047(17) 0.0058(17) 
C46 0.042(2) 0.051(2) 0.057(3) -0.0120(19) 0.0216(18) -0.0028(17) 
C47 0.0252(13) 0.0252(14) 0.0355(17) 0.0019(13) -0.0025(12) 0.0011(13) 
C48 0.0276(15) 0.0288(16) 0.045(2) 0.0033(14) -0.0018(14) -0.0002(13) 
C49 0.0243(14) 0.0275(15) 0.0404(19) -0.0006(14) 0.0023(13) 0.0019(12) 
C50 0.0322(15) 0.0287(16) 0.0354(17) 0.0024(13) -0.0016(14) 0.0008(13) 
C51 0.090(3) 0.037(2) 0.039(2) 0.0007(17) 0.026(2) 0.002(2) 
C52 0.178(6) 0.049(3) 0.070(4) 0.005(2) 0.068(4) -0.012(3) 
C53 0.140(5) 0.066(3) 0.047(3) -0.003(2) 0.002(3) -0.004(3) 
C54 0.083(4) 0.110(4) 0.083(4) 0.012(3) 0.041(3) 0.023(3) 
C55 0.052(2) 0.0307(17) 0.051(2) -0.0044(17) 0.0088(17) 0.0094(16) 
C56 0.0382(17) 0.0299(16) 0.039(2) -0.0003(15) 0.0013(16) 0.0009(14) 
O100 0.127(5) 0.206(7) 0.150(6) -0.049(6) -0.016(5) 0.032(5) 
C101 0.132(7) 0.212(9) 0.152(8) -0.004(7) 0.003(7) 0.076(7) 
C102 0.159(8) 0.228(10) 0.136(7) 0.001(7) 0.016(7) 0.068(8) 
C103 0.125(7) 0.194(9) 0.161(8) -0.007(8) -0.016(6) 0.065(6) 
C104 0.124(7) 0.186(9) 0.140(8) -0.035(8) 0.006(6) 0.041(6) 
O200 0.127(5) 0.206(7) 0.150(6) -0.049(6) -0.016(5) 0.032(5) 
C201 0.132(7) 0.212(9) 0.152(8) -0.004(7) 0.003(7) 0.076(7) 
C202 0.159(8) 0.228(10) 0.136(7) 0.001(7) 0.016(7) 0.068(8) 
C203 0.125(7) 0.194(9) 0.161(8) -0.007(8) -0.016(6) 0.065(6) 
C204 0.124(7) 0.186(9) 0.140(8) -0.035(8) 0.006(6) 0.041(6) 
  

  
_geom_special_details 
;
All e.s.d.'s (except the e.s.d. in the dihedral angle between two l.s. planes)
are estimated using the full covariance matrix. The cell e.s.d.'s are taken
into account individually in the estimation of e.s.d.'s in distances, angles
and torsion angles; correlations between e.s.d.'s in cell parameters are only
used when they are defined by crystal symmetry. An approximate (isotropic)
treatment of cell e.s.d.'s is used for estimating e.s.d.'s involving l.s.
planes.
; 
  
loop_ 
 _geom_bond_atom_site_label_1 
 _geom_bond_atom_site_label_2 
 _geom_bond_distance 
 _geom_bond_site_symmetry_2 
 _geom_bond_publ_flag 
Cu1 C28 1.796(4) . y 
Cu1 N1 2.085(3) . y 
Cu1 N3 2.045(3) . y 
Cu1 N5 2.054(3) . y 
Cu2 C56 1.814(3) . y 
Cu2 N10 2.077(3) . y 
Cu2 N13 2.072(3) . y 
Cu2 N16 2.077(2) . y 
B1 N4 1.543(5) . ? 
B1 N6 1.547(5) . ? 
B1 N2 1.551(5) . ? 
B1 H1 1.18(4) . ? 
B2 N11 1.545(4) . ? 
B2 N17 1.546(5) . ? 
B2 N14 1.562(4) . ? 
B2 H2 1.12(3) . ? 
N1 C1 1.343(4) . ? 
N1 N2 1.367(4) . ? 
N2 C3 1.360(5) . ? 
N3 C10 1.334(4) . ? 
N3 N4 1.360(4) . ? 
N4 C12 1.366(4) . ? 
N5 C19 1.331(4) . ? 
N5 N6 1.364(4) . ? 
N6 C21 1.364(4) . ? 
N7 C4 1.340(5) . ? 
N7 C5 1.478(6) . ? 
N7 H7D 0.8800 . ? 
N8 C13 1.337(5) . ? 
N8 C14 1.478(5) . ? 
N8 H8A 0.8800 . ? 
N9 C22 1.333(5) . ? 
N9 C23 1.478(5) . ? 
N9 H9D 0.8800 . ? 
N10 C29 1.344(4) . ? 
N10 N11 1.372(3) . ? 
N11 C31 1.349(4) . ? 
N12 C32 1.330(4) . ? 
N12 C33 1.490(4) . ? 
N12 H12A 0.8800 . ? 
N13 C38 1.343(4) . ? 
N13 N14 1.369(3) . ? 
N14 C40 1.358(4) . ? 
N15 C41 1.335(4) . ? 
N15 C42 1.495(4) . ? 
N15 H15D 0.8800 . ? 
N16 C47 1.341(4) . ? 
N16 N17 1.355(4) . ? 
N17 C49 1.361(4) . ? 
N18 C50 1.341(4) . ? 
N18 C51 1.483(5) . ? 
N18 H18D 0.8800 . ? 
O1 C4 1.235(4) . ? 
O2 C13 1.228(4) . ? 
O3 C22 1.228(4) . ? 
O4 C28 1.120(4) . ? 
O5 C32 1.240(4) . ? 
O6 C41 1.231(4) . ? 
O7 C50 1.224(4) . ? 
O8 C56 1.126(4) . ? 
C1 C2 1.408(5) . ? 
C1 C4 1.475(5) . ? 
C2 C3 1.373(6) . ? 
C2 H2D 0.9500 . ? 
C3 C9 1.493(6) . ? 
C5 C7 1.506(9) . ? 
C5 C8 1.507(7) . ? 
C5 C6 1.512(8) . ? 
C6 H6A 0.9800 . ? 
C6 H6B 0.9800 . ? 
C6 H6C 0.9800 . ? 
C7 H7A 0.9800 . ? 
C7 H7B 0.9800 . ? 
C7 H7C 0.9800 . ? 
C8 H8C 0.9800 . ? 
C8 H8D 0.9800 . ? 
C8 H8E 0.9800 . ? 
C9 H9A 0.9800 . ? 
C9 H9B 0.9800 . ? 
C9 H9C 0.9800 . ? 
C10 C11 1.394(5) . ? 
C10 C13 1.496(5) . ? 
C11 C12 1.368(5) . ? 
C11 H11 0.9500 . ? 
C12 C18 1.502(5) . ? 
C14 C16 1.521(7) . ? 
C14 C17 1.535(5) . ? 
C14 C15 1.538(6) . ? 
C15 H15A 0.9800 . ? 
C15 H15B 0.9800 . ? 
C15 H15C 0.9800 . ? 
C16 H16A 0.9800 . ? 
C16 H16B 0.9800 . ? 
C16 H16C 0.9800 . ? 
C17 H17A 0.9800 . ? 
C17 H17B 0.9800 . ? 
C17 H17C 0.9800 . ? 
C18 H18A 0.9800 . ? 
C18 H18B 0.9800 . ? 
C18 H18C 0.9800 . ? 
C19 C20 1.397(5) . ? 
C19 C22 1.496(5) . ? 
C20 C21 1.385(5) . ? 
C20 H20 0.9500 . ? 
C21 C27 1.501(5) . ? 
C23 C26 1.487(7) . ? 
C23 C24 1.510(7) . ? 
C23 C25 1.531(7) . ? 
C24 H24A 0.9800 . ? 
C24 H24B 0.9800 . ? 
C24 H24C 0.9800 . ? 
C25 H25A 0.9800 . ? 
C25 H25B 0.9800 . ? 
C25 H25C 0.9800 . ? 
C26 H26A 0.9800 . ? 
C26 H26B 0.9800 . ? 
C26 H26C 0.9800 . ? 
C27 H27A 0.9800 . ? 
C27 H27B 0.9800 . ? 
C27 H27C 0.9800 . ? 
C29 C30 1.399(5) . ? 
C29 C32 1.488(4) . ? 
C30 C31 1.377(5) . ? 
C30 H30 0.9500 . ? 
C31 C37 1.506(5) . ? 
C33 C36 1.516(6) . ? 
C33 C35 1.526(6) . ? 
C33 C34 1.544(5) . ? 
C34 H34A 0.9800 . ? 
C34 H34B 0.9800 . ? 
C34 H34C 0.9800 . ? 
C35 H35A 0.9800 . ? 
C35 H35B 0.9800 . ? 
C35 H35C 0.9800 . ? 
C36 H36A 0.9800 . ? 
C36 H36B 0.9800 . ? 
C36 H36C 0.9800 . ? 
C37 H37A 0.9800 . ? 
C37 H37B 0.9800 . ? 
C37 H37C 0.9800 . ? 
C38 C39 1.387(5) . ? 
C38 C41 1.510(4) . ? 
C39 C40 1.372(5) . ? 
C39 H39 0.9500 . ? 
C40 C46 1.504(5) . ? 
C42 C43 1.514(5) . ? 
C42 C45 1.519(5) . ? 
C42 C44 1.533(5) . ? 
C43 H43A 0.9800 . ? 
C43 H43B 0.9800 . ? 
C43 H43C 0.9800 . ? 
C44 H44A 0.9800 . ? 
C44 H44B 0.9800 . ? 
C44 H44C 0.9800 . ? 
C45 H45A 0.9800 . ? 
C45 H45B 0.9800 . ? 
C45 H45C 0.9800 . ? 
C46 H46A 0.9800 . ? 
C46 H46B 0.9800 . ? 
C46 H46C 0.9800 . ? 
C47 C48 1.402(4) . ? 
C47 C50 1.497(4) . ? 
C48 C49 1.376(5) . ? 
C48 H48 0.9500 . ? 
C49 C55 1.501(5) . ? 
C51 C53 1.524(7) . ? 
C51 C54 1.534(7) . ? 
C51 C52 1.551(6) . ? 
C52 H52A 0.9800 . ? 
C52 H52B 0.9800 . ? 
C52 H52C 0.9800 . ? 
C53 H53A 0.9800 . ? 
C53 H53B 0.9800 . ? 
C53 H53C 0.9800 . ? 
C54 H54A 0.9800 . ? 
C54 H54B 0.9800 . ? 
C54 H54C 0.9800 . ? 
C55 H55A 0.9800 . ? 
C55 H55B 0.9800 . ? 
C55 H55C 0.9800 . ? 
O100 C104 1.346(12) . ? 
O100 C101 1.362(12) . ? 
C101 C102 1.524(13) . ? 
C101 H10A 0.9900 . ? 
C101 H10B 0.9900 . ? 
C102 C103 1.541(13) . ? 
C102 H10C 0.9900 . ? 
C102 H10D 0.9900 . ? 
C103 C104 1.567(13) . ? 
C103 H10E 0.9900 . ? 
C103 H10F 0.9900 . ? 
C104 H10G 0.9900 . ? 
C104 H10H 0.9900 . ? 
O200 C204 1.331(14) . ? 
O200 C201 1.360(14) . ? 
C201 C202 1.590(16) . ? 
C201 H20A 0.9900 . ? 
C201 H20B 0.9900 . ? 
C202 C203 1.611(15) . ? 
C202 H20C 0.9900 . ? 
C202 H20D 0.9900 . ? 
C203 C204 1.663(15) . ? 
C203 H20E 0.9900 . ? 
C203 H20F 0.9900 . ? 
C204 H20G 0.9900 . ? 
C204 H20H 0.9900 . ? 
  
loop_ 
 _geom_angle_atom_site_label_1 
 _geom_angle_atom_site_label_2 
 _geom_angle_atom_site_label_3 
 _geom_angle 
 _geom_angle_site_symmetry_1 
 _geom_angle_site_symmetry_3 
 _geom_angle_publ_flag 
C28 Cu1 N3 125.77(14) . . ? 
C28 Cu1 N5 118.12(14) . . ? 
N3 Cu1 N5 92.16(11) . . ? 
C28 Cu1 N1 130.48(14) . . ? 
N3 Cu1 N1 87.75(11) . . ? 
N5 Cu1 N1 92.02(11) . . ? 
C56 Cu2 N13 136.64(13) . . ? 
C56 Cu2 N10 119.16(13) . . ? 
N13 Cu2 N10 91.02(10) . . ? 
C56 Cu2 N16 115.96(13) . . ? 
N13 Cu2 N16 91.60(10) . . ? 
N10 Cu2 N16 91.32(10) . . ? 
N4 B1 N6 109.3(3) . . ? 
N4 B1 N2 109.0(3) . . ? 
N6 B1 N2 108.9(3) . . ? 
N4 B1 H1 109.4(17) . . ? 
N6 B1 H1 115.0(17) . . ? 
N2 B1 H1 105.2(17) . . ? 
N11 B2 N17 109.0(3) . . ? 
N11 B2 N14 109.1(2) . . ? 
N17 B2 N14 109.0(3) . . ? 
N11 B2 H2 110.1(17) . . ? 
N17 B2 H2 108.6(17) . . ? 
N14 B2 H2 111.0(17) . . ? 
C1 N1 N2 106.6(3) . . ? 
C1 N1 Cu1 139.8(2) . . ? 
N2 N1 Cu1 112.8(2) . . ? 
C3 N2 N1 110.1(3) . . ? 
C3 N2 B1 129.0(3) . . ? 
N1 N2 B1 120.9(3) . . ? 
C10 N3 N4 106.8(3) . . ? 
C10 N3 Cu1 137.7(2) . . ? 
N4 N3 Cu1 115.1(2) . . ? 
N3 N4 C12 109.8(3) . . ? 
N3 N4 B1 120.0(3) . . ? 
C12 N4 B1 130.1(3) . . ? 
C19 N5 N6 106.5(3) . . ? 
C19 N5 Cu1 137.6(2) . . ? 
N6 N5 Cu1 115.8(2) . . ? 
N5 N6 C21 110.1(3) . . ? 
N5 N6 B1 118.6(3) . . ? 
C21 N6 B1 131.3(3) . . ? 
C4 N7 C5 126.9(3) . . ? 
C4 N7 H7D 116.5 . . ? 
C5 N7 H7D 116.5 . . ? 
C13 N8 C14 125.9(3) . . ? 
C13 N8 H8A 117.0 . . ? 
C14 N8 H8A 117.0 . . ? 
C22 N9 C23 126.0(3) . . ? 
C22 N9 H9D 117.0 . . ? 
C23 N9 H9D 117.0 . . ? 
C29 N10 N11 106.2(2) . . ? 
C29 N10 Cu2 139.5(2) . . ? 
N11 N10 Cu2 114.28(19) . . ? 
C31 N11 N10 110.2(3) . . ? 
C31 N11 B2 130.2(3) . . ? 
N10 N11 B2 119.5(2) . . ? 
C32 N12 C33 124.2(3) . . ? 
C32 N12 H12A 117.9 . . ? 
C33 N12 H12A 117.9 . . ? 
C38 N13 N14 105.6(2) . . ? 
C38 N13 Cu2 142.2(2) . . ? 
N14 N13 Cu2 111.93(18) . . ? 
C40 N14 N13 110.4(3) . . ? 
C40 N14 B2 127.5(3) . . ? 
N13 N14 B2 122.1(2) . . ? 
C41 N15 C42 125.2(3) . . ? 
C41 N15 H15D 117.4 . . ? 
C42 N15 H15D 117.4 . . ? 
C47 N16 N17 106.4(2) . . ? 
C47 N16 Cu2 138.5(2) . . ? 
N17 N16 Cu2 114.15(18) . . ? 
N16 N17 C49 110.3(3) . . ? 
N16 N17 B2 120.0(2) . . ? 
C49 N17 B2 129.6(3) . . ? 
C50 N18 C51 124.3(3) . . ? 
C50 N18 H18D 117.9 . . ? 
C51 N18 H18D 117.9 . . ? 
N1 C1 C2 109.7(3) . . ? 
N1 C1 C4 124.4(3) . . ? 
C2 C1 C4 125.7(3) . . ? 
C3 C2 C1 105.8(3) . . ? 
C3 C2 H2D 127.1 . . ? 
C1 C2 H2D 127.1 . . ? 
N2 C3 C2 107.8(3) . . ? 
N2 C3 C9 122.7(4) . . ? 
C2 C3 C9 129.5(4) . . ? 
O1 C4 N7 124.8(4) . . ? 
O1 C4 C1 118.5(4) . . ? 
N7 C4 C1 116.7(3) . . ? 
N7 C5 C7 109.2(5) . . ? 
N7 C5 C8 106.9(4) . . ? 
C7 C5 C8 110.5(5) . . ? 
N7 C5 C6 111.5(4) . . ? 
C7 C5 C6 109.6(5) . . ? 
C8 C5 C6 109.1(5) . . ? 
C5 C6 H6A 109.5 . . ? 
C5 C6 H6B 109.5 . . ? 
H6A C6 H6B 109.5 . . ? 
C5 C6 H6C 109.5 . . ? 
H6A C6 H6C 109.5 . . ? 
H6B C6 H6C 109.5 . . ? 
C5 C7 H7A 109.5 . . ? 
C5 C7 H7B 109.5 . . ? 
H7A C7 H7B 109.5 . . ? 
C5 C7 H7C 109.5 . . ? 
H7A C7 H7C 109.5 . . ? 
H7B C7 H7C 109.5 . . ? 
C5 C8 H8C 109.5 . . ? 
C5 C8 H8D 109.5 . . ? 
H8C C8 H8D 109.5 . . ? 
C5 C8 H8E 109.5 . . ? 
H8C C8 H8E 109.5 . . ? 
H8D C8 H8E 109.5 . . ? 
C3 C9 H9A 109.5 . . ? 
C3 C9 H9B 109.5 . . ? 
H9A C9 H9B 109.5 . . ? 
C3 C9 H9C 109.5 . . ? 
H9A C9 H9C 109.5 . . ? 
H9B C9 H9C 109.5 . . ? 
N3 C10 C11 110.0(3) . . ? 
N3 C10 C13 120.0(3) . . ? 
C11 C10 C13 129.9(3) . . ? 
C12 C11 C10 106.0(3) . . ? 
C12 C11 H11 127.0 . . ? 
C10 C11 H11 127.0 . . ? 
N4 C12 C11 107.4(3) . . ? 
N4 C12 C18 122.4(3) . . ? 
C11 C12 C18 130.2(3) . . ? 
O2 C13 N8 125.9(3) . . ? 
O2 C13 C10 121.3(3) . . ? 
N8 C13 C10 112.8(3) . . ? 
N8 C14 C16 108.9(3) . . ? 
N8 C14 C17 108.9(3) . . ? 
C16 C14 C17 112.3(4) . . ? 
N8 C14 C15 105.5(4) . . ? 
C16 C14 C15 111.9(4) . . ? 
C17 C14 C15 109.2(4) . . ? 
C14 C15 H15A 109.5 . . ? 
C14 C15 H15B 109.5 . . ? 
H15A C15 H15B 109.5 . . ? 
C14 C15 H15C 109.5 . . ? 
H15A C15 H15C 109.5 . . ? 
H15B C15 H15C 109.5 . . ? 
C14 C16 H16A 109.5 . . ? 
C14 C16 H16B 109.5 . . ? 
H16A C16 H16B 109.5 . . ? 
C14 C16 H16C 109.5 . . ? 
H16A C16 H16C 109.5 . . ? 
H16B C16 H16C 109.5 . . ? 
C14 C17 H17A 109.5 . . ? 
C14 C17 H17B 109.5 . . ? 
H17A C17 H17B 109.5 . . ? 
C14 C17 H17C 109.5 . . ? 
H17A C17 H17C 109.5 . . ? 
H17B C17 H17C 109.5 . . ? 
C12 C18 H18A 109.5 . . ? 
C12 C18 H18B 109.5 . . ? 
H18A C18 H18B 109.5 . . ? 
C12 C18 H18C 109.5 . . ? 
H18A C18 H18C 109.5 . . ? 
H18B C18 H18C 109.5 . . ? 
N5 C19 C20 110.7(3) . . ? 
N5 C19 C22 118.7(3) . . ? 
C20 C19 C22 130.7(3) . . ? 
C21 C20 C19 105.4(3) . . ? 
C21 C20 H20 127.3 . . ? 
C19 C20 H20 127.3 . . ? 
N6 C21 C20 107.3(3) . . ? 
N6 C21 C27 122.6(3) . . ? 
C20 C21 C27 130.1(3) . . ? 
O3 C22 N9 124.2(3) . . ? 
O3 C22 C19 120.9(3) . . ? 
N9 C22 C19 114.8(3) . . ? 
N9 C23 C26 109.2(4) . . ? 
N9 C23 C24 107.1(4) . . ? 
C26 C23 C24 108.5(5) . . ? 
N9 C23 C25 111.4(4) . . ? 
C26 C23 C25 110.9(5) . . ? 
C24 C23 C25 109.6(5) . . ? 
C23 C24 H24A 109.5 . . ? 
C23 C24 H24B 109.5 . . ? 
H24A C24 H24B 109.5 . . ? 
C23 C24 H24C 109.5 . . ? 
H24A C24 H24C 109.5 . . ? 
H24B C24 H24C 109.5 . . ? 
C23 C25 H25A 109.5 . . ? 
C23 C25 H25B 109.5 . . ? 
H25A C25 H25B 109.5 . . ? 
C23 C25 H25C 109.5 . . ? 
H25A C25 H25C 109.5 . . ? 
H25B C25 H25C 109.5 . . ? 
C23 C26 H26A 109.5 . . ? 
C23 C26 H26B 109.5 . . ? 
H26A C26 H26B 109.5 . . ? 
C23 C26 H26C 109.5 . . ? 
H26A C26 H26C 109.5 . . ? 
H26B C26 H26C 109.5 . . ? 
C21 C27 H27A 109.5 . . ? 
C21 C27 H27B 109.5 . . ? 
H27A C27 H27B 109.5 . . ? 
C21 C27 H27C 109.5 . . ? 
H27A C27 H27C 109.5 . . ? 
H27B C27 H27C 109.5 . . ? 
O4 C28 Cu1 176.0(4) . . y 
N10 C29 C30 109.9(3) . . ? 
N10 C29 C32 119.5(3) . . ? 
C30 C29 C32 130.5(3) . . ? 
C31 C30 C29 105.8(3) . . ? 
C31 C30 H30 127.1 . . ? 
C29 C30 H30 127.1 . . ? 
N11 C31 C30 107.9(3) . . ? 
N11 C31 C37 122.7(3) . . ? 
C30 C31 C37 129.4(3) . . ? 
O5 C32 N12 124.2(3) . . ? 
O5 C32 C29 119.7(3) . . ? 
N12 C32 C29 116.1(3) . . ? 
N12 C33 C36 110.0(3) . . ? 
N12 C33 C35 110.2(3) . . ? 
C36 C33 C35 111.0(3) . . ? 
N12 C33 C34 105.7(3) . . ? 
C36 C33 C34 109.6(4) . . ? 
C35 C33 C34 110.2(4) . . ? 
C33 C34 H34A 109.5 . . ? 
C33 C34 H34B 109.5 . . ? 
H34A C34 H34B 109.5 . . ? 
C33 C34 H34C 109.5 . . ? 
H34A C34 H34C 109.5 . . ? 
H34B C34 H34C 109.5 . . ? 
C33 C35 H35A 109.5 . . ? 
C33 C35 H35B 109.5 . . ? 
H35A C35 H35B 109.5 . . ? 
C33 C35 H35C 109.5 . . ? 
H35A C35 H35C 109.5 . . ? 
H35B C35 H35C 109.5 . . ? 
C33 C36 H36A 109.5 . . ? 
C33 C36 H36B 109.5 . . ? 
H36A C36 H36B 109.5 . . ? 
C33 C36 H36C 109.5 . . ? 
H36A C36 H36C 109.5 . . ? 
H36B C36 H36C 109.5 . . ? 
C31 C37 H37A 109.5 . . ? 
C31 C37 H37B 109.5 . . ? 
H37A C37 H37B 109.5 . . ? 
C31 C37 H37C 109.5 . . ? 
H37A C37 H37C 109.5 . . ? 
H37B C37 H37C 109.5 . . ? 
N13 C38 C39 110.7(3) . . ? 
N13 C38 C41 126.1(3) . . ? 
C39 C38 C41 123.2(3) . . ? 
C40 C39 C38 106.0(3) . . ? 
C40 C39 H39 127.0 . . ? 
C38 C39 H39 127.0 . . ? 
N14 C40 C39 107.4(3) . . ? 
N14 C40 C46 123.7(3) . . ? 
C39 C40 C46 128.9(3) . . ? 
O6 C41 N15 125.0(3) . . ? 
O6 C41 C38 117.4(3) . . ? 
N15 C41 C38 117.6(3) . . ? 
N15 C42 C43 110.1(3) . . ? 
N15 C42 C45 105.9(3) . . ? 
C43 C42 C45 109.9(3) . . ? 
N15 C42 C44 110.0(3) . . ? 
C43 C42 C44 111.4(3) . . ? 
C45 C42 C44 109.4(3) . . ? 
C42 C43 H43A 109.5 . . ? 
C42 C43 H43B 109.5 . . ? 
H43A C43 H43B 109.5 . . ? 
C42 C43 H43C 109.5 . . ? 
H43A C43 H43C 109.5 . . ? 
H43B C43 H43C 109.5 . . ? 
C42 C44 H44A 109.5 . . ? 
C42 C44 H44B 109.5 . . ? 
H44A C44 H44B 109.5 . . ? 
C42 C44 H44C 109.5 . . ? 
H44A C44 H44C 109.5 . . ? 
H44B C44 H44C 109.5 . . ? 
C42 C45 H45A 109.5 . . ? 
C42 C45 H45B 109.5 . . ? 
H45A C45 H45B 109.5 . . ? 
C42 C45 H45C 109.5 . . ? 
H45A C45 H45C 109.5 . . ? 
H45B C45 H45C 109.5 . . ? 
C40 C46 H46A 109.5 . . ? 
C40 C46 H46B 109.5 . . ? 
H46A C46 H46B 109.5 . . ? 
C40 C46 H46C 109.5 . . ? 
H46A C46 H46C 109.5 . . ? 
H46B C46 H46C 109.5 . . ? 
N16 C47 C48 110.3(3) . . ? 
N16 C47 C50 119.5(3) . . ? 
C48 C47 C50 130.2(3) . . ? 
C49 C48 C47 105.3(3) . . ? 
C49 C48 H48 127.4 . . ? 
C47 C48 H48 127.4 . . ? 
N17 C49 C48 107.7(3) . . ? 
N17 C49 C55 123.0(3) . . ? 
C48 C49 C55 129.3(3) . . ? 
O7 C50 N18 123.5(3) . . ? 
O7 C50 C47 121.6(3) . . ? 
N18 C50 C47 114.9(3) . . ? 
N18 C51 C53 109.9(4) . . ? 
N18 C51 C54 110.0(4) . . ? 
C53 C51 C54 111.2(4) . . ? 
N18 C51 C52 107.0(3) . . ? 
C53 C51 C52 108.7(4) . . ? 
C54 C51 C52 110.0(5) . . ? 
C51 C52 H52A 109.5 . . ? 
C51 C52 H52B 109.5 . . ? 
H52A C52 H52B 109.5 . . ? 
C51 C52 H52C 109.5 . . ? 
H52A C52 H52C 109.5 . . ? 
H52B C52 H52C 109.5 . . ? 
C51 C53 H53A 109.5 . . ? 
C51 C53 H53B 109.5 . . ? 
H53A C53 H53B 109.5 . . ? 
C51 C53 H53C 109.5 . . ? 
H53A C53 H53C 109.5 . . ? 
H53B C53 H53C 109.5 . . ? 
C51 C54 H54A 109.5 . . ? 
C51 C54 H54B 109.5 . . ? 
H54A C54 H54B 109.5 . . ? 
C51 C54 H54C 109.5 . . ? 
H54A C54 H54C 109.5 . . ? 
H54B C54 H54C 109.5 . . ? 
C49 C55 H55A 109.5 . . ? 
C49 C55 H55B 109.5 . . ? 
H55A C55 H55B 109.5 . . ? 
C49 C55 H55C 109.5 . . ? 
H55A C55 H55C 109.5 . . ? 
H55B C55 H55C 109.5 . . ? 
O8 C56 Cu2 172.7(3) . . y 
C104 O100 C101 108.5(11) . . ? 
O100 C101 C102 107.4(9) . . ? 
O100 C101 H10A 110.2 . . ? 
C102 C101 H10A 110.2 . . ? 
O100 C101 H10B 110.2 . . ? 
C102 C101 H10B 110.2 . . ? 
H10A C101 H10B 108.5 . . ? 
C101 C102 C103 95.2(9) . . ? 
C101 C102 H10C 112.7 . . ? 
C103 C102 H10C 112.7 . . ? 
C101 C102 H10D 112.7 . . ? 
C103 C102 H10D 112.7 . . ? 
H10C C102 H10D 110.2 . . ? 
C102 C103 C104 96.5(9) . . ? 
C102 C103 H10E 112.5 . . ? 
C104 C103 H10E 112.5 . . ? 
C102 C103 H10F 112.5 . . ? 
C104 C103 H10F 112.5 . . ? 
H10E C103 H10F 110.0 . . ? 
O100 C104 C103 107.3(8) . . ? 
O100 C104 H10G 110.2 . . ? 
C103 C104 H10G 110.2 . . ? 
O100 C104 H10H 110.3 . . ? 
C103 C104 H10H 110.3 . . ? 
H10G C104 H10H 108.5 . . ? 
C204 O200 C201 108.3(13) . . ? 
O200 C201 C202 103.9(11) . . ? 
O200 C201 H20A 111.0 . . ? 
C202 C201 H20A 111.0 . . ? 
O200 C201 H20B 111.0 . . ? 
C202 C201 H20B 111.0 . . ? 
H20A C201 H20B 109.0 . . ? 
C201 C202 C203 87.3(10) . . ? 
C201 C202 H20C 114.1 . . ? 
C203 C202 H20C 114.1 . . ? 
C201 C202 H20D 114.1 . . ? 
C203 C202 H20D 114.1 . . ? 
H20C C202 H20D 111.3 . . ? 
C202 C203 C204 86.2(9) . . ? 
C202 C203 H20E 114.3 . . ? 
C204 C203 H20E 114.3 . . ? 
C202 C203 H20F 114.3 . . ? 
C204 C203 H20F 114.3 . . ? 
H20E C203 H20F 111.4 . . ? 
O200 C204 C203 101.7(10) . . ? 
O200 C204 H20G 111.4 . . ? 
C203 C204 H20G 111.4 . . ? 
O200 C204 H20H 111.4 . . ? 
C203 C204 H20H 111.4 . . ? 
H20G C204 H20H 109.3 . . ? 
  
loop_ 
 _geom_torsion_atom_site_label_1 
 _geom_torsion_atom_site_label_2 
 _geom_torsion_atom_site_label_3 
 _geom_torsion_atom_site_label_4 
 _geom_torsion 
 _geom_torsion_site_symmetry_1 
 _geom_torsion_site_symmetry_2 
 _geom_torsion_site_symmetry_3 
 _geom_torsion_site_symmetry_4 
 _geom_torsion_publ_flag 
C28 Cu1 N1 C1 -1.5(5) . . . . ? 
N3 Cu1 N1 C1 -138.8(4) . . . . ? 
N5 Cu1 N1 C1 129.1(4) . . . . ? 
C28 Cu1 N1 N2 -169.0(2) . . . . ? 
N3 Cu1 N1 N2 53.7(2) . . . . ? 
N5 Cu1 N1 N2 -38.4(2) . . . . ? 
C1 N1 N2 C3 -0.6(4) . . . . ? 
Cu1 N1 N2 C3 171.0(3) . . . . ? 
C1 N1 N2 B1 178.2(3) . . . . ? 
Cu1 N1 N2 B1 -10.2(4) . . . . ? 
N4 B1 N2 C3 126.3(4) . . . . ? 
N6 B1 N2 C3 -114.5(4) . . . . ? 
N4 B1 N2 N1 -52.2(4) . . . . ? 
N6 B1 N2 N1 67.0(4) . . . . ? 
C28 Cu1 N3 C10 -1.8(4) . . . . ? 
N5 Cu1 N3 C10 -129.2(3) . . . . ? 
N1 Cu1 N3 C10 138.8(3) . . . . ? 
C28 Cu1 N3 N4 169.7(2) . . . . ? 
N5 Cu1 N3 N4 42.2(2) . . . . ? 
N1 Cu1 N3 N4 -49.7(2) . . . . ? 
C10 N3 N4 C12 0.4(3) . . . . ? 
Cu1 N3 N4 C12 -173.6(2) . . . . ? 
C10 N3 N4 B1 176.0(3) . . . . ? 
Cu1 N3 N4 B1 2.0(3) . . . . ? 
N6 B1 N4 N3 -61.0(4) . . . . ? 
N2 B1 N4 N3 57.9(4) . . . . ? 
N6 B1 N4 C12 113.5(4) . . . . ? 
N2 B1 N4 C12 -127.6(3) . . . . ? 
C28 Cu1 N5 C19 2.2(4) . . . . ? 
N3 Cu1 N5 C19 135.3(3) . . . . ? 
N1 Cu1 N5 C19 -136.9(3) . . . . ? 
C28 Cu1 N5 N6 -174.2(2) . . . . ? 
N3 Cu1 N5 N6 -41.1(2) . . . . ? 
N1 Cu1 N5 N6 46.8(2) . . . . ? 
C19 N5 N6 C21 -1.5(4) . . . . ? 
Cu1 N5 N6 C21 176.0(2) . . . . ? 
C19 N5 N6 B1 178.2(3) . . . . ? 
Cu1 N5 N6 B1 -4.4(4) . . . . ? 
N4 B1 N6 N5 62.0(4) . . . . ? 
N2 B1 N6 N5 -56.9(4) . . . . ? 
N4 B1 N6 C21 -118.4(4) . . . . ? 
N2 B1 N6 C21 122.7(4) . . . . ? 
C56 Cu2 N10 C29 -12.0(4) . . . . ? 
N13 Cu2 N10 C29 135.4(3) . . . . ? 
N16 Cu2 N10 C29 -133.0(3) . . . . ? 
C56 Cu2 N10 N11 167.41(19) . . . . ? 
N13 Cu2 N10 N11 -45.2(2) . . . . ? 
N16 Cu2 N10 N11 46.5(2) . . . . ? 
C29 N10 N11 C31 -0.4(3) . . . . ? 
Cu2 N10 N11 C31 180.0(2) . . . . ? 
C29 N10 N11 B2 176.2(3) . . . . ? 
Cu2 N10 N11 B2 -3.4(3) . . . . ? 
N17 B2 N11 C31 117.8(3) . . . . ? 
N14 B2 N11 C31 -123.2(3) . . . . ? 
N17 B2 N11 N10 -58.0(3) . . . . ? 
N14 B2 N11 N10 60.9(3) . . . . ? 
C56 Cu2 N13 C38 -0.9(4) . . . . ? 
N10 Cu2 N13 C38 -137.7(4) . . . . ? 
N16 Cu2 N13 C38 131.0(4) . . . . ? 
C56 Cu2 N13 N14 -173.8(2) . . . . ? 
N10 Cu2 N13 N14 49.4(2) . . . . ? 
N16 Cu2 N13 N14 -41.9(2) . . . . ? 
C38 N13 N14 C40 -0.2(3) . . . . ? 
Cu2 N13 N14 C40 175.3(2) . . . . ? 
C38 N13 N14 B2 178.1(3) . . . . ? 
Cu2 N13 N14 B2 -6.4(3) . . . . ? 
N11 B2 N14 C40 122.5(3) . . . . ? 
N17 B2 N14 C40 -118.5(3) . . . . ? 
N11 B2 N14 N13 -55.4(4) . . . . ? 
N17 B2 N14 N13 63.5(3) . . . . ? 
C56 Cu2 N16 C47 2.8(4) . . . . ? 
N13 Cu2 N16 C47 -142.6(3) . . . . ? 
N10 Cu2 N16 C47 126.4(3) . . . . ? 
C56 Cu2 N16 N17 -164.4(2) . . . . ? 
N13 Cu2 N16 N17 50.3(2) . . . . ? 
N10 Cu2 N16 N17 -40.8(2) . . . . ? 
C47 N16 N17 C49 -0.1(3) . . . . ? 
Cu2 N16 N17 C49 171.1(2) . . . . ? 
C47 N16 N17 B2 -178.6(3) . . . . ? 
Cu2 N16 N17 B2 -7.4(3) . . . . ? 
N11 B2 N17 N16 65.5(3) . . . . ? 
N14 B2 N17 N16 -53.6(3) . . . . ? 
N11 B2 N17 C49 -112.7(3) . . . . ? 
N14 B2 N17 C49 128.3(3) . . . . ? 
N2 N1 C1 C2 -0.1(4) . . . . ? 
Cu1 N1 C1 C2 -168.1(3) . . . . ? 
N2 N1 C1 C4 -175.6(4) . . . . ? 
Cu1 N1 C1 C4 16.4(6) . . . . ? 
N1 C1 C2 C3 0.7(5) . . . . ? 
C4 C1 C2 C3 176.1(4) . . . . ? 
N1 N2 C3 C2 1.0(5) . . . . ? 
B1 N2 C3 C2 -177.6(4) . . . . ? 
N1 N2 C3 C9 -179.5(4) . . . . ? 
B1 N2 C3 C9 1.9(7) . . . . ? 
C1 C2 C3 N2 -1.0(5) . . . . ? 
C1 C2 C3 C9 179.5(5) . . . . ? 
C5 N7 C4 O1 2.8(7) . . . . ? 
C5 N7 C4 C1 179.4(4) . . . . ? 
N1 C1 C4 O1 -163.0(4) . . . . ? 
C2 C1 C4 O1 22.2(6) . . . . ? 
N1 C1 C4 N7 20.3(6) . . . . ? 
C2 C1 C4 N7 -154.6(4) . . . . ? 
C4 N7 C5 C7 62.7(6) . . . . ? 
C4 N7 C5 C8 -177.8(5) . . . . ? 
C4 N7 C5 C6 -58.6(7) . . . . ? 
N4 N3 C10 C11 0.3(4) . . . . ? 
Cu1 N3 C10 C11 172.2(2) . . . . ? 
N4 N3 C10 C13 -177.4(3) . . . . ? 
Cu1 N3 C10 C13 -5.5(5) . . . . ? 
N3 C10 C11 C12 -0.8(4) . . . . ? 
C13 C10 C11 C12 176.5(3) . . . . ? 
N3 N4 C12 C11 -1.0(4) . . . . ? 
B1 N4 C12 C11 -175.9(3) . . . . ? 
N3 N4 C12 C18 177.8(3) . . . . ? 
B1 N4 C12 C18 2.9(5) . . . . ? 
C10 C11 C12 N4 1.1(4) . . . . ? 
C10 C11 C12 C18 -177.5(4) . . . . ? 
C14 N8 C13 O2 3.7(6) . . . . ? 
C14 N8 C13 C10 -177.9(3) . . . . ? 
N3 C10 C13 O2 -29.7(5) . . . . ? 
C11 C10 C13 O2 153.1(4) . . . . ? 
N3 C10 C13 N8 151.8(3) . . . . ? 
C11 C10 C13 N8 -25.4(5) . . . . ? 
C13 N8 C14 C16 67.4(5) . . . . ? 
C13 N8 C14 C17 -55.3(5) . . . . ? 
C13 N8 C14 C15 -172.4(4) . . . . ? 
N6 N5 C19 C20 1.0(4) . . . . ? 
Cu1 N5 C19 C20 -175.6(3) . . . . ? 
N6 N5 C19 C22 -178.4(3) . . . . ? 
Cu1 N5 C19 C22 4.9(5) . . . . ? 
N5 C19 C20 C21 -0.2(4) . . . . ? 
C22 C19 C20 C21 179.2(3) . . . . ? 
N5 N6 C21 C20 1.4(4) . . . . ? 
B1 N6 C21 C20 -178.2(3) . . . . ? 
N5 N6 C21 C27 -179.4(3) . . . . ? 
B1 N6 C21 C27 1.0(6) . . . . ? 
C19 C20 C21 N6 -0.7(4) . . . . ? 
C19 C20 C21 C27 -179.9(4) . . . . ? 
C23 N9 C22 O3 11.0(6) . . . . ? 
C23 N9 C22 C19 -169.6(4) . . . . ? 
N5 C19 C22 O3 -52.5(5) . . . . ? 
C20 C19 C22 O3 128.2(4) . . . . ? 
N5 C19 C22 N9 128.1(3) . . . . ? 
C20 C19 C22 N9 -51.2(5) . . . . ? 
C22 N9 C23 C26 59.2(6) . . . . ? 
C22 N9 C23 C24 176.6(5) . . . . ? 
C22 N9 C23 C25 -63.6(5) . . . . ? 
N11 N10 C29 C30 0.2(3) . . . . ? 
Cu2 N10 C29 C30 179.6(2) . . . . ? 
N11 N10 C29 C32 176.7(3) . . . . ? 
Cu2 N10 C29 C32 -3.8(5) . . . . ? 
N10 C29 C30 C31 0.1(4) . . . . ? 
C32 C29 C30 C31 -175.9(3) . . . . ? 
N10 N11 C31 C30 0.5(4) . . . . ? 
B2 N11 C31 C30 -175.7(3) . . . . ? 
N10 N11 C31 C37 -177.9(3) . . . . ? 
B2 N11 C31 C37 6.0(5) . . . . ? 
C29 C30 C31 N11 -0.4(4) . . . . ? 
C29 C30 C31 C37 177.8(3) . . . . ? 
C33 N12 C32 O5 -1.3(6) . . . . ? 
C33 N12 C32 C29 177.7(3) . . . . ? 
N10 C29 C32 O5 -23.9(5) . . . . ? 
C30 C29 C32 O5 151.8(3) . . . . ? 
N10 C29 C32 N12 157.0(3) . . . . ? 
C30 C29 C32 N12 -27.3(5) . . . . ? 
C32 N12 C33 C36 -63.2(5) . . . . ? 
C32 N12 C33 C35 59.5(5) . . . . ? 
C32 N12 C33 C34 178.6(4) . . . . ? 
N14 N13 C38 C39 0.3(4) . . . . ? 
Cu2 N13 C38 C39 -172.9(3) . . . . ? 
N14 N13 C38 C41 179.6(3) . . . . ? 
Cu2 N13 C38 C41 6.4(6) . . . . ? 
N13 C38 C39 C40 -0.2(4) . . . . ? 
C41 C38 C39 C40 -179.5(3) . . . . ? 
N13 N14 C40 C39 0.1(4) . . . . ? 
B2 N14 C40 C39 -178.1(3) . . . . ? 
N13 N14 C40 C46 -179.3(3) . . . . ? 
B2 N14 C40 C46 2.6(5) . . . . ? 
C38 C39 C40 N14 0.1(4) . . . . ? 
C38 C39 C40 C46 179.4(4) . . . . ? 
C42 N15 C41 O6 0.7(5) . . . . ? 
C42 N15 C41 C38 179.9(3) . . . . ? 
N13 C38 C41 O6 176.9(3) . . . . ? 
C39 C38 C41 O6 -3.8(5) . . . . ? 
N13 C38 C41 N15 -2.4(5) . . . . ? 
C39 C38 C41 N15 176.8(3) . . . . ? 
C41 N15 C42 C43 -64.7(4) . . . . ? 
C41 N15 C42 C45 176.6(3) . . . . ? 
C41 N15 C42 C44 58.5(4) . . . . ? 
N17 N16 C47 C48 -0.2(3) . . . . ? 
Cu2 N16 C47 C48 -168.0(2) . . . . ? 
N17 N16 C47 C50 178.6(3) . . . . ? 
Cu2 N16 C47 C50 10.8(5) . . . . ? 
N16 C47 C48 C49 0.3(4) . . . . ? 
C50 C47 C48 C49 -178.3(3) . . . . ? 
N16 N17 C49 C48 0.3(3) . . . . ? 
B2 N17 C49 C48 178.6(3) . . . . ? 
N16 N17 C49 C55 -178.9(3) . . . . ? 
B2 N17 C49 C55 -0.6(5) . . . . ? 
C47 C48 C49 N17 -0.4(3) . . . . ? 
C47 C48 C49 C55 178.7(3) . . . . ? 
C51 N18 C50 O7 0.2(6) . . . . ? 
C51 N18 C50 C47 179.5(3) . . . . ? 
N16 C47 C50 O7 13.9(5) . . . . ? 
C48 C47 C50 O7 -167.6(3) . . . . ? 
N16 C47 C50 N18 -165.4(3) . . . . ? 
C48 C47 C50 N18 13.1(5) . . . . ? 
C50 N18 C51 C53 63.2(5) . . . . ? 
C50 N18 C51 C54 -59.5(5) . . . . ? 
C50 N18 C51 C52 -179.0(4) . . . . ? 
C104 O100 C101 C102 24(2) . . . . ? 
O100 C101 C102 C103 -45.1(19) . . . . ? 
C101 C102 C103 C104 44.9(17) . . . . ? 
C101 O100 C104 C103 9(2) . . . . ? 
C102 C103 C104 O100 -36(2) . . . . ? 
C204 O200 C201 C202 21(2) . . . . ? 
O200 C201 C202 C203 -57.6(18) . . . . ? 
C201 C202 C203 C204 61.1(12) . . . . ? 
C201 O200 C204 C203 24(2) . . . . ? 
C202 C203 C204 O200 -58.3(16) . . . . ? 
  
_diffrn_measured_fraction_theta_max    0.998 
_diffrn_reflns_theta_full              25.00 
_diffrn_measured_fraction_theta_full   0.998 
_refine_diff_density_max    0.552 
_refine_diff_density_min   -0.271 
_refine_diff_density_rms    0.074 

_iucr_refine_instructions_details
;

TITL kla0325 in P2(1)2(1)2(1)
CELL  0.71073  15.1972  15.7870  34.9020   90.000   90.000   90.000
ZERR     8.00   0.0011   0.0011   0.0025   0.000   0.000   0.000
LATT -1
SYMM 1/2-X, -Y, 1/2+Z
SYMM -X, 1/2+Y, 1/2-Z
SYMM 1/2+X, 1/2-Y, -Z
SFAC C  H  B  N  O  Cu
UNIT 240  376  8  72  36  8
L.S. 20
ACTA 50
FMAP 2
PLAN 10
WPDB
CONF
SIZE 0.122 0.154 0.434
EADP O100 O200
EADP C101 C201
EADP C102 C202
EADP C103 C203
EADP C104 C204
 
DELU O100 C101 C102 C103 C104 O200 C201 C202 C203 C204
SIMU O100 C101 C102 C103 C104 O200 C201 C202 C203 C204
TEMP -73.150
OMIT 0 2 2
OMIT 1 1 0
OMIT 1 1 3
OMIT -1 1 3
OMIT 0 1 3
OMIT 2 0 0
OMIT 0 2 0
OMIT 0 1 1
OMIT  0 4 3
OMIT  0 4 6
OMIT  1 0 6
OMIT  2 3 4
OMIT  1 3 11
OMIT  0 2 8
OMIT  0 2 7
OMIT 0 2 3
OMIT  3 2 1
OMIT  -2 3 4
OMIT  1 0 5
DFIX -4 C6 C203
 
BOND $H
 
SADI O100 C101 O100 C104 O200 C201 O200 C204
SADI C101 C102 C102 C103 C103 C104 C201 C202 C202 C203 C203 C204
SADI C101 C103 C104 C102 C201 C203 C204 C202 C104 C101 C204 C201
SADI O100 C102 O100 C103 O200 C202 O200 C203
WGHT    0.079100
FVAR       0.09129   0.60344
CU1   6    0.607013    0.203880    0.600257    11.00000    0.03915    0.03417 =
         0.03563    0.00114   -0.00449   -0.00534
CU2   6    0.931499    0.408049    0.770435    11.00000    0.02995    0.02632 =
         0.03264   -0.00255    0.00338    0.00110
B1    3    0.723416    0.357282    0.614858    11.00000    0.03789    0.02795 =
         0.03938    0.00212   -0.00410   -0.00320
H1    2    0.761909    0.421180    0.619797    11.00000   -1.20000
B2    3    0.834213    0.511375    0.830374    11.00000    0.02749    0.02747 =
         0.03435   -0.00197    0.00188    0.00304
H2    2    0.797858    0.550181    0.851897    11.00000   -1.20000
N1    4    0.593769    0.319773    0.572190    11.00000    0.04179    0.04011 =
         0.03475    0.00663   -0.00442   -0.00346
N2    4    0.658890    0.375864    0.581476    11.00000    0.03983    0.03475 =
         0.04162    0.00523   -0.00389   -0.00486
N3    4    0.612079    0.269842    0.650641    11.00000    0.03235    0.03193 =
         0.03598   -0.00023   -0.00492   -0.00187
N4    4    0.669889    0.335578    0.651121    11.00000    0.03551    0.03135 =
         0.03714   -0.00379   -0.00644    0.00060
N5    4    0.741507    0.206096    0.594518    11.00000    0.03706    0.03187 =
         0.03624    0.00278    0.00009   -0.00387
N6    4    0.781593    0.280606    0.603874    11.00000    0.03778    0.03242 =
         0.03926    0.00013   -0.00154   -0.00473
N7    4    0.424511    0.260918    0.547659    11.00000    0.05011    0.07133 =
         0.04513    0.01941   -0.00976   -0.00950
AFIX  43
H7D   2    0.447066    0.249214    0.570270    11.00000   -1.20000
AFIX   0
N8    4    0.521219    0.169200    0.732279    11.00000    0.03184    0.05422 =
         0.04383    0.00683    0.00173   -0.00231
AFIX  43
H8A   2    0.558010    0.197045    0.747127    11.00000   -1.20000
AFIX   0
N9    4    0.816529    0.040306    0.539547    11.00000    0.05929    0.04060 =
         0.03538   -0.00386    0.00760   -0.00659
AFIX  43
H9D   2    0.858153    0.072768    0.529974    11.00000   -1.20000
AFIX   0
N10   4    0.981763    0.439833    0.823858    11.00000    0.02974    0.02243 =
         0.03421   -0.00223    0.00096    0.00235
N11   4    0.924777    0.484830    0.846547    11.00000    0.03085    0.02806 =
         0.02959   -0.00157    0.00644    0.00028
N12   4    1.209426    0.396712    0.842258    11.00000    0.03125    0.03839 =
         0.04785   -0.01385   -0.00239    0.00380
AFIX  43
H12A  2    1.214137    0.437587    0.859278    11.00000   -1.20000
AFIX   0
N13   4    0.813584    0.370399    0.794880    11.00000    0.03057    0.02594 =
         0.03007   -0.00246    0.00142    0.00030
N14   4    0.780971    0.430206    0.819476    11.00000    0.02620    0.02948 =
         0.03360   -0.00301    0.00279    0.00077
N15   4    0.826958    0.218898    0.747181    11.00000    0.02850    0.03033 =
         0.04053   -0.00383    0.00016   -0.00209
AFIX  43
H15D  2    0.866942    0.259218    0.747248    11.00000   -1.20000
AFIX   0
N16   4    0.884894    0.530404    0.762326    11.00000    0.03036    0.02544 =
         0.03020   -0.00100    0.00207    0.00033
N17   4    0.848460    0.565562    0.793996    11.00000    0.02738    0.02512 =
         0.03636   -0.00040    0.00035    0.00065
N18   4    0.951948    0.642555    0.677236    11.00000    0.05836    0.02748 =
         0.03821    0.00136    0.01152   -0.00425
AFIX  43
H18D  2    0.940941    0.692638    0.687213    11.00000   -1.20000
AFIX   0
O1    5    0.443637    0.343515    0.494646    11.00000    0.07148    0.07209 =
         0.04792    0.02124   -0.02608   -0.01296
O2    5    0.466771    0.164043    0.671301    11.00000    0.04622    0.06861 =
         0.05514    0.00013   -0.00627   -0.01422
O3    5    0.731725    0.020365    0.592109    11.00000    0.06489    0.03963 =
         0.05101    0.00085    0.01677   -0.01150
O4    5    0.519857    0.041207    0.589435    11.00000    0.06929    0.04525 =
         0.10951   -0.00591   -0.00289   -0.02230
O5    5    1.114740    0.324997    0.803736    11.00000    0.03597    0.03319 =
         0.05108   -0.01084   -0.00293    0.00150
O6    5    0.695902    0.178532    0.772916    11.00000    0.03832    0.03629 =
         0.04920   -0.00423    0.00346   -0.00969
O7    5    0.943088    0.501279    0.686915    11.00000    0.06153    0.02869 =
         0.04180   -0.00040    0.00826    0.00394
O8    5    1.056868    0.350883    0.711938    11.00000    0.06070    0.05561 =
         0.05583    0.00401    0.02744    0.01639
C1    1    0.548117    0.354768    0.543303    11.00000    0.04668    0.04723 =
         0.03703    0.00779   -0.00403   -0.00031
C2    1    0.584390    0.434242    0.534011    11.00000    0.06744    0.05105 =
         0.04895    0.01957   -0.01272   -0.00324
AFIX  43
H2D   2    0.564451    0.472485    0.514873    11.00000   -1.20000
AFIX   0
C3    1    0.654548    0.445045    0.558332    11.00000    0.05670    0.04023 =
         0.05336    0.01621   -0.00754   -0.00498
C4    1    0.468012    0.317722    0.526306    11.00000    0.05116    0.05274 =
         0.03909    0.00841   -0.00922    0.00009
C5    1    0.342668    0.215848    0.537255    11.00000    0.05578    0.07555 =
         0.08366    0.02954   -0.02232   -0.01668
C6    1    0.268504    0.276995    0.528885    11.00000    0.05075    0.13264 =
         0.18361    0.06456   -0.03274   -0.02225
AFIX 137
H6A   2    0.259896    0.314498    0.550943    11.00000   -1.50000
H6B   2    0.214261    0.245193    0.524019    11.00000   -1.50000
H6C   2    0.283299    0.310912    0.506267    11.00000   -1.50000
AFIX   0
C7    1    0.359455    0.161435    0.502570    11.00000    0.15572    0.10998 =
         0.09883    0.00876   -0.02270   -0.07639
AFIX 137
H7A   2    0.372842    0.197660    0.480526    11.00000   -1.50000
H7B   2    0.307023    0.127440    0.497025    11.00000   -1.50000
H7C   2    0.409423    0.123798    0.507591    11.00000   -1.50000
AFIX   0
C8    1    0.317843    0.161718    0.571149    11.00000    0.08007    0.14537 =
         0.10946    0.07443   -0.00908   -0.04013
AFIX 137
H8C   2    0.367878    0.125913    0.578324    11.00000   -1.50000
H8D   2    0.267566    0.125849    0.564373    11.00000   -1.50000
H8E   2    0.301946    0.198199    0.592787    11.00000   -1.50000
AFIX   0
C9    1    0.717640    0.517218    0.561307    11.00000    0.08519    0.05391 =
         0.09210    0.02922   -0.02763   -0.02337
AFIX 137
H9A   2    0.704756    0.550103    0.584452    11.00000   -1.50000
H9B   2    0.711715    0.553677    0.538728    11.00000   -1.50000
H9C   2    0.777871    0.495256    0.562694    11.00000   -1.50000
AFIX   0
C10   1    0.580252    0.262544    0.686094    11.00000    0.02967    0.03918 =
         0.03881   -0.00082   -0.00211    0.00431
C11   1    0.617309    0.324156    0.709718    11.00000    0.03704    0.04491 =
         0.03357   -0.00212   -0.00286    0.00899
AFIX  43
H11   2    0.605336    0.333226    0.736116    11.00000   -1.20000
AFIX   0
C12   1    0.674420    0.368911    0.687174    11.00000    0.03884    0.03331 =
         0.03962   -0.00539   -0.00881    0.00905
C13   1    0.517079    0.192904    0.695545    11.00000    0.03025    0.04519 =
         0.04289   -0.00029    0.00341    0.00368
C14   1    0.469591    0.100456    0.750207    11.00000    0.03354    0.06047 =
         0.06386    0.01484    0.00765    0.00003
C15   1    0.488790    0.106765    0.793392    11.00000    0.05463    0.10913 =
         0.07052    0.03267    0.01260   -0.00030
AFIX 137
H15A  2    0.551748    0.097780    0.797907    11.00000   -1.50000
H15B  2    0.454925    0.063484    0.807093    11.00000   -1.50000
H15C  2    0.471926    0.163049    0.802685    11.00000   -1.50000
AFIX   0
C16   1    0.499493    0.016138    0.733640    11.00000    0.07972    0.05503 =
         0.12125    0.01793    0.00151   -0.00120
AFIX 137
H16A  2    0.489949    0.016029    0.705871    11.00000   -1.50000
H16B  2    0.465592   -0.029888    0.745350    11.00000   -1.50000
H16C  2    0.562205    0.007936    0.739024    11.00000   -1.50000
AFIX   0
C17   1    0.371352    0.116946    0.743238    11.00000    0.03022    0.09408 =
         0.09835    0.02956    0.00892    0.00003
AFIX 137
H17A  2    0.355552    0.172759    0.753424    11.00000   -1.50000
H17B  2    0.336498    0.073248    0.756176    11.00000   -1.50000
H17C  2    0.359282    0.115360    0.715665    11.00000   -1.50000
AFIX   0
C18   1    0.735245    0.440598    0.697170    11.00000    0.05995    0.04238 =
         0.05042   -0.01003   -0.00757   -0.00225
AFIX 137
H18A  2    0.796348    0.422589    0.693405    11.00000   -1.50000
H18B  2    0.726411    0.456718    0.724011    11.00000   -1.50000
H18C  2    0.722653    0.489250    0.680615    11.00000   -1.50000
AFIX   0
C19   1    0.805354    0.152090    0.585255    11.00000    0.03917    0.03157 =
         0.02792    0.00409    0.00377    0.00089
C20   1    0.887780    0.190386    0.589109    11.00000    0.03703    0.04274 =
         0.04661   -0.00093    0.00284    0.00430
AFIX  43
H20   2    0.943665    0.165555    0.584356    11.00000   -1.20000
AFIX   0
C21   1    0.870724    0.272193    0.601325    11.00000    0.03813    0.04346 =
         0.03907    0.00207    0.00322   -0.00311
C22   1    0.780733    0.064721    0.572619    11.00000    0.03876    0.03487 =
         0.03910    0.00476    0.00116    0.00033
C23   1    0.792786   -0.036221    0.517474    11.00000    0.07150    0.05605 =
         0.05052   -0.01658    0.00210   -0.00671
C24   1    0.846462   -0.034797    0.481072    11.00000    0.19888    0.10127 =
         0.06601   -0.04294    0.04542   -0.02698
AFIX 137
H24A  2    0.834664    0.017798    0.467070    11.00000   -1.50000
H24B  2    0.830382   -0.083391    0.465064    11.00000   -1.50000
H24C  2    0.909177   -0.037875    0.487456    11.00000   -1.50000
AFIX   0
C25   1    0.813231   -0.117100    0.540009    11.00000    0.10294    0.04819 =
         0.08922   -0.01869   -0.01163    0.00883
AFIX 137
H25A  2    0.876798   -0.127511    0.539655    11.00000   -1.50000
H25B  2    0.782591   -0.165125    0.528240    11.00000   -1.50000
H25C  2    0.793388   -0.110418    0.566554    11.00000   -1.50000
AFIX   0
C26   1    0.697962   -0.032281    0.507104    11.00000    0.10390    0.10220 =
         0.11368   -0.02773   -0.04763   -0.00974
AFIX 137
H26A  2    0.662221   -0.034198    0.530459    11.00000   -1.50000
H26B  2    0.683064   -0.080607    0.490718    11.00000   -1.50000
H26C  2    0.686110    0.020560    0.493301    11.00000   -1.50000
AFIX   0
C27   1    0.932925    0.343310    0.610298    11.00000    0.04211    0.04866 =
         0.08387   -0.00945   -0.00256   -0.00636
AFIX 137
H27A  2    0.924702    0.389111    0.591686    11.00000   -1.50000
H27B  2    0.993639    0.322615    0.608913    11.00000   -1.50000
H27C  2    0.921054    0.364646    0.636155    11.00000   -1.50000
AFIX   0
C28   1    0.551113    0.104981    0.592827    11.00000    0.04526    0.04329 =
         0.05067    0.00376   -0.00054   -0.00550
C29   1    1.056003    0.430566    0.844346    11.00000    0.02967    0.02491 =
         0.03774   -0.00158    0.00161   -0.00177
C30   1    1.046474    0.469365    0.880135    11.00000    0.03208    0.03648 =
         0.03426   -0.00614   -0.00358    0.00014
AFIX  43
H30   2    1.089000    0.472180    0.900044    11.00000   -1.20000
AFIX   0
C31   1    0.962741    0.502632    0.880549    11.00000    0.03193    0.03418 =
         0.03471   -0.00354   -0.00113   -0.00525
C32   1    1.129890    0.379864    0.828295    11.00000    0.03384    0.02320 =
         0.04016   -0.00148   -0.00002    0.00107
C33   1    1.291075    0.350810    0.830930    11.00000    0.03101    0.04624 =
         0.06371   -0.01849    0.00051    0.00757
C34   1    1.366507    0.393347    0.853494    11.00000    0.02958    0.09085 =
         0.10626   -0.05010   -0.00913    0.00764
AFIX 137
H34A  2    1.369495    0.453533    0.846741    11.00000   -1.50000
H34B  2    1.422393    0.365883    0.847019    11.00000   -1.50000
H34C  2    1.355496    0.387616    0.881038    11.00000   -1.50000
AFIX   0
C35   1    1.306693    0.359820    0.787918    11.00000    0.04869    0.05968 =
         0.06797   -0.01472    0.01577   -0.00594
AFIX 137
H35A  2    1.257860    0.333639    0.773917    11.00000   -1.50000
H35B  2    1.361882    0.331599    0.780991    11.00000   -1.50000
H35C  2    1.310365    0.420008    0.781234    11.00000   -1.50000
AFIX   0
C36   1    1.284321    0.258369    0.842303    11.00000    0.04966    0.05941 =
         0.07671   -0.00517   -0.00675    0.02153
AFIX 137
H36A  2    1.273832    0.254207    0.869944    11.00000   -1.50000
H36B  2    1.339327    0.229275    0.835856    11.00000   -1.50000
H36C  2    1.235436    0.231862    0.828462    11.00000   -1.50000
AFIX   0
C37   1    0.915369    0.548942    0.912141    11.00000    0.03943    0.05821 =
         0.04215   -0.01304    0.00273   -0.00091
AFIX 137
H37A  2    0.898104    0.605321    0.903109    11.00000   -1.50000
H37B  2    0.954440    0.554621    0.934331    11.00000   -1.50000
H37C  2    0.862740    0.517017    0.919539    11.00000   -1.50000
AFIX   0
C38   1    0.752066    0.309436    0.793275    11.00000    0.03076    0.02971 =
         0.03326    0.00045   -0.00037   -0.00361
C39   1    0.680833    0.329845    0.816340    11.00000    0.03395    0.03970 =
         0.04640   -0.00138    0.00678   -0.00938
AFIX  43
H39   2    0.628931    0.297331    0.820063    11.00000   -1.20000
AFIX   0
C40   1    0.700600    0.406559    0.832684    11.00000    0.03263    0.03948 =
         0.03260   -0.00239    0.00536   -0.00041
C41   1    0.756780    0.229449    0.769665    11.00000    0.03716    0.03032 =
         0.02964    0.00196   -0.00854    0.00027
C42   1    0.843080    0.144068    0.721889    11.00000    0.03757    0.02845 =
         0.03836   -0.00445   -0.00432    0.00237
C43   1    0.854645    0.064998    0.745894    11.00000    0.05133    0.03782 =
         0.05244    0.00047   -0.00095    0.00884
AFIX 137
H43A  2    0.900730    0.074579    0.765050    11.00000   -1.50000
H43B  2    0.871539    0.017603    0.729319    11.00000   -1.50000
H43C  2    0.799154    0.051618    0.758854    11.00000   -1.50000
AFIX   0
C44   1    0.767348    0.134273    0.693223    11.00000    0.04464    0.04416 =
         0.04524   -0.01068   -0.01212    0.00615
AFIX 137
H44A  2    0.712873    0.121380    0.707070    11.00000   -1.50000
H44B  2    0.780726    0.088038    0.675415    11.00000   -1.50000
H44C  2    0.760027    0.187140    0.678855    11.00000   -1.50000
AFIX   0
C45   1    0.927588    0.163196    0.700319    11.00000    0.04137    0.04408 =
         0.04459   -0.00578    0.00471    0.00576
AFIX 137
H45A  2    0.919366    0.213913    0.684529    11.00000   -1.50000
H45B  2    0.942591    0.115050    0.683843    11.00000   -1.50000
H45C  2    0.975329    0.172967    0.718670    11.00000   -1.50000
AFIX   0
C46   1    0.646507    0.458869    0.859914    11.00000    0.04242    0.05078 =
         0.05704   -0.01204    0.02157   -0.00277
AFIX 137
H46A  2    0.679884    0.468397    0.883549    11.00000   -1.50000
H46B  2    0.591790    0.428824    0.865923    11.00000   -1.50000
H46C  2    0.632590    0.513479    0.848017    11.00000   -1.50000
AFIX   0
C47   1    0.890719    0.592431    0.736188    11.00000    0.02525    0.02520 =
         0.03552    0.00186   -0.00248    0.00112
C48   1    0.857422    0.668341    0.751178    11.00000    0.02760    0.02881 =
         0.04472    0.00329   -0.00175   -0.00019
AFIX  43
H48   2    0.853577    0.721617    0.738634    11.00000   -1.20000
AFIX   0
C49   1    0.831510    0.649173    0.787935    11.00000    0.02430    0.02748 =
         0.04041   -0.00059    0.00230    0.00190
C50   1    0.930625    0.573948    0.697881    11.00000    0.03216    0.02865 =
         0.03537    0.00238   -0.00162    0.00076
C51   1    0.992878    0.639575    0.638679    11.00000    0.08987    0.03662 =
         0.03924    0.00072    0.02638    0.00165
C52   1    1.007635    0.732594    0.625873    11.00000    0.17802    0.04906 =
         0.07036    0.00482    0.06842   -0.01190
AFIX 137
H52A  2    0.952774    0.764537    0.628873    11.00000   -1.50000
H52B  2    1.025800    0.733657    0.598936    11.00000   -1.50000
H52C  2    1.053656    0.758350    0.641721    11.00000   -1.50000
AFIX   0
C53   1    0.930426    0.597029    0.610431    11.00000    0.14025    0.06602 =
         0.04679   -0.00268    0.00232   -0.00396
AFIX 137
H53A  2    0.923266    0.537277    0.617374    11.00000   -1.50000
H53B  2    0.954782    0.601093    0.584497    11.00000   -1.50000
H53C  2    0.873084    0.625367    0.611263    11.00000   -1.50000
AFIX   0
C54   1    1.081232    0.592788    0.640605    11.00000    0.08304    0.10950 =
         0.08308    0.01161    0.04081    0.02277
AFIX 137
H54A  2    1.117651    0.617627    0.660871    11.00000   -1.50000
H54B  2    1.111634    0.598057    0.615958    11.00000   -1.50000
H54C  2    1.070857    0.532790    0.646218    11.00000   -1.50000
AFIX   0
C55   1    0.792561    0.705862    0.818002    11.00000    0.05153    0.03067 =
         0.05149   -0.00435    0.00877    0.00943
AFIX 137
H55A  2    0.734175    0.684807    0.825171    11.00000   -1.50000
H55B  2    0.787292    0.763519    0.807853    11.00000   -1.50000
H55C  2    0.830784    0.706277    0.840616    11.00000   -1.50000
AFIX   0
C56   1    1.005561    0.368259    0.733865    11.00000    0.03818    0.02987 =
         0.03928   -0.00031    0.00132    0.00089
PART   1
O100  5    0.375964    0.400850    0.674272    21.00000    0.12655    0.20610 =
         0.14956   -0.04884   -0.01605    0.03237
C101  1    0.394821    0.366856    0.639346    21.00000    0.13246    0.21166 =
         0.15188   -0.00423    0.00303    0.07593
AFIX  23
H10A  2    0.368425    0.309750    0.637049    21.00000   -1.20000
H10B  2    0.459291    0.361766    0.635993    21.00000   -1.20000
AFIX   0
C102  1    0.356490    0.425903    0.609090    21.00000    0.15924    0.22820 =
         0.13635    0.00100    0.01552    0.06837
AFIX  23
H10C  2    0.350763    0.398453    0.583709    21.00000   -1.20000
H10D  2    0.389766    0.479560    0.606725    21.00000   -1.20000
AFIX   0
C103  1    0.267233    0.437553    0.629368    21.00000    0.12480    0.19440 =
         0.16065   -0.00676   -0.01643    0.06529
AFIX  23
H10E  2    0.229783    0.386371    0.627722    21.00000   -1.20000
H10F  2    0.234537    0.487500    0.619802    21.00000   -1.20000
AFIX   0
C104  1    0.305354    0.451668    0.670582    21.00000    0.12410    0.18580 =
         0.13974   -0.03516    0.00593    0.04119
AFIX  23
H10G  2    0.322695    0.511632    0.674031    21.00000   -1.20000
H10H  2    0.260562    0.437345    0.690133    21.00000   -1.20000
AFIX   0
PART   2
O200  5    0.405652    0.502010    0.627265   -21.00000    0.12655    0.20610 =
         0.14956   -0.04884   -0.01605    0.03237
C201  1    0.318845    0.519206    0.632637   -21.00000    0.13246    0.21166 =
         0.15188   -0.00423    0.00303    0.07593
AFIX  23
H20A  2    0.286746    0.519192    0.607955   -21.00000   -1.20000
H20B  2    0.310812    0.574882    0.645213   -21.00000   -1.20000
AFIX   0
C202  1    0.285744    0.444472    0.659545   -21.00000    0.15924    0.22820 =
         0.13635    0.00100    0.01552    0.06837
AFIX  23
H20C  2    0.221298    0.443665    0.663670   -21.00000   -1.20000
H20D  2    0.317999    0.439935    0.684104   -21.00000   -1.20000
AFIX   0
C203  1    0.319389    0.379885    0.626946   -21.00000    0.12480    0.19440 =
         0.16065   -0.00676   -0.01643    0.06529
AFIX  23
H20E  2    0.295377    0.391315    0.601090   -21.00000   -1.20000
H20F  2    0.313649    0.319313    0.633851   -21.00000   -1.20000
AFIX   0
C204  1    0.418930    0.420267    0.634578   -21.00000    0.12410    0.18580 =
         0.13974   -0.03516    0.00593    0.04119
AFIX  23
H20G  2    0.438205    0.411255    0.661365   -21.00000   -1.20000
H20H  2    0.463036    0.395569    0.616944   -21.00000   -1.20000
PART   0
 
HKLF 4
 
REM  kla0325 in P2(1)2(1)2(1)
REM R1 =  0.0501 for  14552 Fo > 4sig(Fo)  and  0.0766 for all  19225 data
REM    866 parameters refined using    195 restraints
 
END  
     
WGHT      0.0773      0.0000 
REM Highest difference peak  0.552,  deepest hole -0.271,  1-sigma level  0.074
Q1    1   1.1199  0.8361  0.5371  11.00000  0.05    0.55
Q2    1   1.1828  0.8244  0.5547  11.00000  0.05    0.50
Q3    1   0.2982  0.3557  0.6185  11.00000  0.05    0.46
Q4    1   0.4663  0.6649  0.6032  11.00000  0.05    0.45
Q5    1   0.4390  0.4190  0.6401  11.00000  0.05    0.44
Q6    1   0.5357  0.2908  0.9513  11.00000  0.05    0.43
Q7    1   1.2042  0.7810  0.5616  11.00000  0.05    0.40
Q8    1   0.9928  0.4033  0.7694  11.00000  0.05    0.36
Q9    1   0.9084  0.6162  0.4883  11.00000  0.05    0.36
Q10   1   0.4712 -0.1620  0.5232  11.00000  0.05    0.35

;

# start Validation Reply Form
_vrf_PLAT601_compound5
;
PROBLEM: Structure Contains Solvent Accessible VOIDS of 802 A**3 
RESPONSE: No residual electron density can be modeled into 
the void. This data-set was NOT treated with Squeeze.
;

_vrf_PLAT241_compound5
;
PROBLEM: Check High      Ueq as Compared to Neighbors for O4
RESPONSE: O4 is an O-atom of a carbonyl ligand. Identity
is consistent with synthesis and spectroscopy.
;


loop_
_publcif_info_tables.block_id
_publcif_info_tables.reference_item
"global" "_publcif_info_datablock.publ_exptl"
"II" "_geom_bond_atom_site_label_1"
"III" "_geom_bond_atom_site_label_1"
"III" "_geom_hbond_atom_site_label_D"
"IV" "_geom_bond_atom_site_label_1"
"IV" "_geom_hbond_atom_site_label_D"
"V" "_geom_bond_atom_site_label_1"
"global" "_geom_extra_table_headA"

loop_
_publcif_info_datablock.id
_publcif_info_datablock.publ_exptl
_publcif_info_datablock.publ_geom
_publcif_info_datablock.structure
global ? ? ?
II y y y
III y y y
IV y y y
V y y y

loop_
_publcif_info_exptl_table_extra_item
sin_theta_over_lambda_max

loop_
_publcif_info_exptl_table_header_item
?

_publcif_info_exptl_table_max_cols 4
_publcif_info_exptl_table_use_headnotes n

