##############################################################################
#                                                                            #
# This CIF contains the data in a paper accepted for publication in Acta     #
# Crystallographica Section B. It has been peer reviewed under the auspices  #
# of the IUCr Commission on Journals.                                        #
#                                                                            #
# Full details of the Crystallographic Information File format               #
# are given in the paper "The Crystallographic Information File (CIF):       #
# a New Standard Archive File for Crystallography" by S. R. Hall, F. H.      #
# Allen and I. D. Brown [Acta Cryst. (1991), A47, 655-685].                  #
#                                                                            #
# The current version of the core CIF dictionary may be obtained from        #
# ftp://ftp.iucr.org/pub/cif_core.dic. The current version number is 2.1.    #
#                                                                            #
# Software is freely available for graphical display of the structure(s) in  #
# this CIF.  For information consult the CIF home page http://www.iucr.org/  #
# cif/home.html                                                              #
#                                                                            #
# This file may be used for bona fide research purposes within the           #
# scientific community so long as proper attribution is given to the journal # 
# article from which it was obtained.                                        #
#                                                                            #
##############################################################################

data_I
_audit_creation_method     SHELXL-97
_journal_date_recd_electronic     2007-01-04
_journal_date_accepted     2007-04-11
_journal_name_full     'Acta Crystallographica, Section B'
_journal_year     2007
_journal_volume     63
_journal_issue      3
_journal_page_first     485
_journal_page_last     496
_journal_paper_category     FA
_journal_coeditor_code     GP5015
_chemical_name_systematic
;
 (E)-2-bromobenzaldehyde 4-cyanophenylhydrazone
;
_chemical_name_common     ?
_chemical_formula_moiety     'C14 H10 Br N3'
_chemical_formula_sum     'C14 H10 Br N3'
_chemical_formula_weight     300.16
_chemical_melting_point        .2E-227
_symmetry_cell_setting     monoclinic
_symmetry_space_group_name_H-M     'C 1 c 1'
loop_
    _symmetry_equiv_pos_as_xyz
    'x, y, z'
    'x, -y, z+1/2'
    'x+1/2, y+1/2, z'
    'x+1/2, -y+1/2, z+1/2'
_cell_length_a     4.2021(3)
_cell_length_b     21.0409(13)
_cell_length_c     14.3803(9)
_cell_angle_alpha     90.00
_cell_angle_beta     96.2480(10)
_cell_angle_gamma     90.00
_cell_volume     1263.90(14)
_cell_formula_units_Z     4
_cell_measurement_reflns_used     3519
_cell_measurement_theta_min     2.404
_cell_measurement_theta_max     24.971
_cell_measurement_temperature     173(2)
_exptl_crystal_description     needle
_exptl_crystal_colour     yellow
_exptl_crystal_size_max     0.50
_exptl_crystal_size_mid     0.20
_exptl_crystal_size_min     0.20
_exptl_crystal_density_diffrn     1.577
_exptl_crystal_density_meas     ?
_exptl_crystal_density_method     'not measured'
_exptl_crystal_F_000     600
_exptl_absorpt_coefficient_mu     3.236
_exptl_absorpt_correction_type     multi-scan
_exptl_absorpt_process_details     'SADABS (Blessing, 1995)'
_exptl_absorpt_correction_T_min     0.462
_exptl_absorpt_correction_T_max     0.521
_exptl_special_details
;
 ?
;
_diffrn_ambient_temperature     173(2)
_diffrn_radiation_type     MoK\a
_diffrn_radiation_wavelength     0.71073
_diffrn_radiation_source     'normal-focus sealed tube'
_diffrn_radiation_monochromator     graphite
_diffrn_measurement_device_type     'Bruker SMART Platform CCD'
_diffrn_measurement_method     'area detector, omega scans per phi'
_diffrn_detector_area_resol_mean     ?
_diffrn_reflns_number     6085
_diffrn_reflns_av_R_equivalents     0.0232
_diffrn_reflns_av_sigmaI/netI     0.0401
_diffrn_reflns_theta_min     1.94
_diffrn_reflns_theta_max     25.03
_diffrn_reflns_theta_full     25.03
_diffrn_measured_fraction_theta_max     1.000
_diffrn_measured_fraction_theta_full     1.000
_diffrn_reflns_limit_h_min     -4
_diffrn_reflns_limit_h_max     4
_diffrn_reflns_limit_k_min     -24
_diffrn_reflns_limit_k_max     24
_diffrn_reflns_limit_l_min     -17
_diffrn_reflns_limit_l_max     17
_diffrn_standards_number     ?
_diffrn_standards_interval_count     ?
_diffrn_standards_interval_time     ?
_diffrn_standards_decay_%     ?
_refine_special_details
;
 Refinement of F^2^ against ALL reflections.  The weighted R-factor wR and
 goodness of fit S are based on F^2^, conventional R-factors R are based
 on F, with F set to zero for negative F^2^. The threshold expression of
 F^2^ > 2sigma(F^2^) is used only for calculating R-factors(gt) etc. and is
 not relevant to the choice of reflections for refinement.  R-factors based
 on F^2^ are statistically about twice as large as those based on F, and R-
 factors based on ALL data will be even larger.
;
_reflns_number_total     2202
_reflns_number_gt     2082
_reflns_threshold_expression     'I>2\s(I)'
_refine_ls_structure_factor_coef     Fsqd
_refine_ls_matrix_type     full
_refine_ls_R_factor_all     0.0288
_refine_ls_R_factor_gt     0.0258
_refine_ls_wR_factor_gt     0.0598
_refine_ls_wR_factor_ref     0.0613
_refine_ls_goodness_of_fit_ref     1.041
_refine_ls_restrained_S_all     1.040
_refine_ls_number_reflns     2202
_refine_ls_number_parameters     167
_refine_ls_number_restraints     2
_refine_ls_hydrogen_treatment     mixed
_refine_ls_weighting_scheme     calc
_refine_ls_weighting_details
         'calc w=1/[\s^2^(Fo^2^)+(0.0102P)^2^+1.0482P] where P=(Fo^2^+2Fc^2^)/3'
_atom_sites_solution_hydrogens     geom
_atom_sites_solution_primary     direct
_atom_sites_solution_secondary     difmap
_refine_ls_shift/su_max     0.001
_refine_ls_shift/su_mean     0.000
_refine_diff_density_max     0.551
_refine_diff_density_min     -0.519
_refine_ls_extinction_method     none
_refine_ls_extinction_coef     ?
_refine_ls_abs_structure_details     'Flack H D (1983), 1087 Friedel pairs'
_refine_ls_abs_structure_Flack     0.036(10)
loop_
    _atom_type_symbol
    _atom_type_description
    _atom_type_scat_dispersion_real
    _atom_type_scat_dispersion_imag
    _atom_type_scat_source
    'C' 'C' 0.0033 0.0016
                         'International Tables Vol C Tables 4.2.6.8 and 6.1.1.4'
    'H' 'H' 0.0000 0.0000
                         'International Tables Vol C Tables 4.2.6.8 and 6.1.1.4'
    'N' 'N' 0.0061 0.0033
                         'International Tables Vol C Tables 4.2.6.8 and 6.1.1.4'
    'Br' 'Br' -0.2901 2.4595
                         'International Tables Vol C Tables 4.2.6.8 and 6.1.1.4'
_computing_data_collection     'SMART, Bruker'
_computing_cell_refinement     'SAINT, Bruker'
_computing_data_reduction     'SAINT, Bruker'
_computing_structure_solution     'SHELXS-97 (Sheldrick, 1990)'
_computing_structure_refinement     'SHELXL-97 (Sheldrick, 1997)'
_computing_molecular_graphics     'PLATON (Spek, 2003)'
_computing_publication_material     'SHELXL97 (Sheldrick, 1997)'
loop_
    _atom_site_type_symbol
    _atom_site_label
    _atom_site_fract_x
    _atom_site_fract_y
    _atom_site_fract_z
    _atom_site_U_iso_or_equiv
    _atom_site_adp_type
    _atom_site_calc_flag
    _atom_site_refinement_flags
    _atom_site_occupancy
    _atom_site_disorder_assembly
    _atom_site_disorder_group
    Br Br1 1.24368(8) 0.534957(17) 0.82315(4) 0.05691(13) Uani d . 1 . .
    C C1 0.9177(7) 0.51504(14) 0.6390(2) 0.0302(6) Uani d . 1 . .
    C C2 1.1188(7) 0.48836(16) 0.7118(2) 0.0373(7) Uani d . 1 . .
    C C3 1.2345(8) 0.42662(17) 0.7064(3) 0.0451(9) Uani d . 1 . .
    H H3 1.3711 0.4093 0.7571 0.054 Uiso calc R 1 . .
    C C4 1.1517(9) 0.39093(16) 0.6282(3) 0.0488(9) Uani d . 1 . .
    H H4 1.2285 0.3486 0.6247 0.059 Uiso calc R 1 . .
    C C5 0.9568(9) 0.41636(18) 0.5543(3) 0.0426(9) Uani d . 1 . .
    H H5 0.9008 0.3917 0.4996 0.051 Uiso calc R 1 . .
    C C6 0.8435(8) 0.47732(14) 0.5597(2) 0.0358(7) Uani d . 1 . .
    H H6 0.7108 0.4943 0.5079 0.043 Uiso calc R 1 . .
    C C7 0.2433(6) 0.68129(14) 0.51637(19) 0.0263(6) Uani d . 1 . .
    C C8 0.1169(6) 0.64220(13) 0.44284(19) 0.0270(6) Uani d . 1 . .
    H H8 0.1775 0.5987 0.4413 0.032 Uiso calc R 1 . .
    C C9 -0.0963(6) 0.66717(13) 0.3726(2) 0.0289(6) Uani d . 1 . .
    H H9 -0.1811 0.6406 0.3226 0.035 Uiso calc R 1 . .
    C C10 -0.1897(7) 0.73063(14) 0.3738(2) 0.0288(6) Uani d . 1 . .
    C C11 -0.0656(7) 0.76928(14) 0.4473(2) 0.0316(7) Uani d . 1 . .
    H H11 -0.1281 0.8126 0.4488 0.038 Uiso calc R 1 . .
    C C12 0.1475(7) 0.74516(13) 0.5180(2) 0.0293(6) Uani d . 1 . .
    H H12 0.2301 0.7719 0.5682 0.035 Uiso calc R 1 . .
    C C13 0.7886(7) 0.57951(14) 0.64407(19) 0.0297(6) Uani d . 1 . .
    H H13 0.8647 0.6071 0.6938 0.036 Uiso calc R 1 . .
    C C14 -0.4140(8) 0.75415(15) 0.2993(2) 0.0338(7) Uani d . 1 . .
    H H1N 0.542(7) 0.6811(15) 0.624(2) 0.026(8) Uiso d . 1 . .
    N N1 0.5710(6) 0.59807(12) 0.58011(19) 0.0271(6) Uani d . 1 . .
    N N2 0.4587(6) 0.65816(12) 0.58620(18) 0.0291(5) Uani d . 1 . .
    N N3 -0.5938(7) 0.77063(14) 0.2381(2) 0.0447(7) Uani d . 1 . .
loop_
    _atom_site_aniso_label
    _atom_site_aniso_U_11
    _atom_site_aniso_U_22
    _atom_site_aniso_U_33
    _atom_site_aniso_U_12
    _atom_site_aniso_U_13
    _atom_site_aniso_U_23
    Br1 0.0533(2) 0.0825(3) 0.03093(16) 0.0129(2) -0.01351(12) 0.0036(2)
    C1 0.0257(15) 0.0331(16) 0.0316(16) -0.0047(12) 0.0024(12) 0.0095(12)
    C2 0.0273(16) 0.053(2) 0.0318(17) 0.0017(14) 0.0038(12) 0.0120(15)
    C3 0.0351(18) 0.054(2) 0.047(2) 0.0149(16) 0.0069(15) 0.0256(18)
    C4 0.050(2) 0.0375(19) 0.061(2) 0.0101(16) 0.0188(19) 0.0106(17)
    C5 0.044(2) 0.0324(19) 0.052(2) 0.0003(15) 0.0095(18) -0.0010(17)
    C6 0.0338(17) 0.0363(18) 0.0362(17) -0.0035(12) -0.0008(13) 0.0034(13)
    C7 0.0252(14) 0.0310(16) 0.0226(13) -0.0036(11) 0.0021(11) 0.0017(11)
    C8 0.0254(15) 0.0239(14) 0.0309(15) -0.0008(11) -0.0008(12) -0.0021(12)
    C9 0.0264(15) 0.0316(16) 0.0276(15) -0.0033(12) -0.0018(11) -0.0044(12)
    C10 0.0250(15) 0.0374(18) 0.0238(15) 0.0006(13) 0.0024(12) 0.0049(13)
    C11 0.0334(17) 0.0280(15) 0.0339(17) 0.0053(12) 0.0065(13) 0.0017(13)
    C12 0.0312(16) 0.0284(16) 0.0278(14) -0.0001(13) 0.0003(12) -0.0046(12)
    C13 0.0289(15) 0.0333(16) 0.0255(15) -0.0035(12) -0.0029(12) 0.0038(12)
    C14 0.0328(16) 0.0377(18) 0.0311(17) -0.0005(14) 0.0047(13) 0.0051(14)
    N1 0.0288(13) 0.0250(14) 0.0269(14) -0.0028(10) 0.0005(11) 0.0037(11)
    N2 0.0327(13) 0.0262(13) 0.0261(13) -0.0024(11) -0.0072(10) -0.0047(11)
    N3 0.0445(18) 0.0488(17) 0.0391(17) 0.0064(13) -0.0024(14) 0.0120(14)
_geom_special_details
;
 All esds (except the esd in the dihedral angle between two l.s. planes)
 are estimated using the full covariance matrix.  The cell esds are taken
 into account individually in the estimation of esds in distances, angles
 and torsion angles; correlations between esds in cell parameters are only
 used when they are defined by crystal symmetry.  An approximate (isotropic)
 treatment of cell esds is used for estimating esds involving l.s. planes.
;
loop_
    _geom_bond_atom_site_label_1
    _geom_bond_atom_site_label_2
    _geom_bond_site_symmetry_2
    _geom_bond_distance
    _geom_bond_publ_flag
    Br1 C2 . 1.902(3) y
    C1 C2 . 1.390(4) n
    C1 C6 . 1.397(4) n
    C1 C13 . 1.466(4) y
    C2 C3 . 1.392(5) n
    C3 C4 . 1.366(5) n
    C3 H3 . 0.95 n
    C4 C5 . 1.377(5) n
    C4 H4 . 0.95 n
    C5 C6 . 1.373(5) n
    C5 H5 . 0.95 n
    C6 H6 . 0.95 n
    C7 N2 . 1.366(4) y
    C7 C8 . 1.398(4) n
    C7 C12 . 1.404(4) n
    C8 C9 . 1.379(4) n
    C8 H8 . 0.95 n
    C9 C10 . 1.392(4) n
    C9 H9 . 0.95 n
    C10 C11 . 1.390(4) n
    C10 C14 . 1.435(4) y
    C11 C12 . 1.377(4) n
    C11 H11 . 0.95 n
    C12 H12 . 0.95 n
    C13 N1 . 1.285(4) y
    C13 H13 . 0.95 n
    C14 N3 . 1.149(4) y
    N1 N2 . 1.356(4) y
    N2 H1N . 0.78(3) n
loop_
    _geom_angle_atom_site_label_1
    _geom_angle_atom_site_label_2
    _geom_angle_atom_site_label_3
    _geom_angle_site_symmetry_1
    _geom_angle_site_symmetry_3
    _geom_angle
    _geom_angle_publ_flag
    C2 C1 C6 . . 116.7(3) n
    C2 C1 C13 . . 122.3(3) n
    C6 C1 C13 . . 121.0(3) n
    C1 C2 C3 . . 121.5(3) n
    C1 C2 Br1 . . 121.0(2) n
    C3 C2 Br1 . . 117.5(2) n
    C4 C3 C2 . . 120.0(3) n
    C4 C3 H3 . . 120 n
    C2 C3 H3 . . 120 n
    C3 C4 C5 . . 119.9(3) n
    C3 C4 H4 . . 120 n
    C5 C4 H4 . . 120 n
    C6 C5 C4 . . 120.0(4) n
    C6 C5 H5 . . 120 n
    C4 C5 H5 . . 120 n
    C5 C6 C1 . . 121.9(3) n
    C5 C6 H6 . . 119 n
    C1 C6 H6 . . 119 n
    N2 C7 C8 . . 120.9(3) n
    N2 C7 C12 . . 119.8(3) n
    C8 C7 C12 . . 119.3(2) n
    C9 C8 C7 . . 119.5(3) n
    C9 C8 H8 . . 120 n
    C7 C8 H8 . . 120 n
    C8 C9 C10 . . 121.2(3) n
    C8 C9 H9 . . 119 n
    C10 C9 H9 . . 119 n
    C11 C10 C9 . . 119.2(3) n
    C11 C10 C14 . . 121.8(3) n
    C9 C10 C14 . . 119.0(3) n
    C12 C11 C10 . . 120.4(3) n
    C12 C11 H11 . . 120 n
    C10 C11 H11 . . 120 n
    C11 C12 C7 . . 120.3(3) n
    C11 C12 H12 . . 120 n
    C7 C12 H12 . . 120 n
    N1 C13 C1 . . 118.9(3) y
    N1 C13 H13 . . 121 n
    C1 C13 H13 . . 121 n
    N3 C14 C10 . . 177.3(3) y
    C13 N1 N2 . . 117.6(3) y
    N1 N2 C7 . . 119.5(3) y
    N1 N2 H1N . . 119(2) n
    C7 N2 H1N . . 120(2) n
loop_
    _geom_torsion_atom_site_label_1
    _geom_torsion_atom_site_label_2
    _geom_torsion_atom_site_label_3
    _geom_torsion_atom_site_label_4
    _geom_torsion_site_symmetry_1
    _geom_torsion_site_symmetry_2
    _geom_torsion_site_symmetry_3
    _geom_torsion_site_symmetry_4
    _geom_torsion
    _geom_torsion_publ_flag
    C6 C1 C2 C3 . . . . -1.3(4) n
    C13 C1 C2 C3 . . . . 178.9(3) n
    C6 C1 C2 Br1 . . . . 179.1(2) n
    C13 C1 C2 Br1 . . . . -0.7(4) n
    C1 C2 C3 C4 . . . . 0.2(5) n
    Br1 C2 C3 C4 . . . . 179.8(3) n
    C2 C3 C4 C5 . . . . 0.8(5) n
    C3 C4 C5 C6 . . . . -0.6(5) n
    C4 C5 C6 C1 . . . . -0.5(5) n
    C2 C1 C6 C5 . . . . 1.5(4) n
    C13 C1 C6 C5 . . . . -178.7(3) n
    N2 C7 C8 C9 . . . . -179.0(3) n
    C12 C7 C8 C9 . . . . 0.8(4) n
    C7 C8 C9 C10 . . . . -0.3(4) n
    C8 C9 C10 C11 . . . . -0.2(4) n
    C8 C9 C10 C14 . . . . -179.6(3) n
    C9 C10 C11 C12 . . . . 0.1(4) n
    C14 C10 C11 C12 . . . . 179.5(3) n
    C10 C11 C12 C7 . . . . 0.4(4) n
    N2 C7 C12 C11 . . . . 179.0(3) n
    C8 C7 C12 C11 . . . . -0.8(4) n
    C2 C1 C13 N1 . . . . -170.7(3) n
    C6 C1 C13 N1 . . . . 9.5(4) y
    C1 C13 N1 N2 . . . . -179.3(3) y
    C13 N1 N2 C7 . . . . 175.6(3) y
    C8 C7 N2 N1 . . . . 5.4(4) y
    C12 C7 N2 N1 . . . . -174.4(3) n
loop_
    _geom_hbond_atom_site_label_D
    _geom_hbond_atom_site_label_H
    _geom_hbond_atom_site_label_A
    _geom_hbond_site_symmetry_A
    _geom_hbond_distance_DH
    _geom_hbond_distance_HA
    _geom_hbond_distance_DA
    _geom_hbond_angle_DHA
    N2 H1N N3 4_665 0.78(3) 2.35(3) 3.108(4) 164(3)
data_II
_audit_creation_method     SHELXL-97
_journal_date_recd_electronic     2007-01-04
_journal_date_accepted     2007-04-11
_journal_name_full     'Acta Crystallographica, Section B'
_journal_year     2007
_journal_volume     63
_journal_issue      3
_journal_page_first     485
_journal_page_last     496
_journal_paper_category     FA
_journal_coeditor_code     GP5015
_chemical_name_systematic
;
 (E)-4-cyanobenzaldehyde 2-bromophenylhydrazone
;
_chemical_name_common     ?
_chemical_formula_moiety     'C14 H10 Br N3'
_chemical_formula_sum     'C14 H10 Br N3'
_chemical_formula_weight     300.16
_chemical_melting_point        .158E-217
_symmetry_cell_setting     monoclinic
_symmetry_space_group_name_H-M     'C 1 c 1'
loop_
    _symmetry_equiv_pos_as_xyz
    'x, y, z'
    'x, -y, z+1/2'
    'x+1/2, y+1/2, z'
    'x+1/2, -y+1/2, z+1/2'
_cell_length_a     4.4902(4)
_cell_length_b     19.9376(17)
_cell_length_c     14.3182(12)
_cell_angle_alpha     90.00
_cell_angle_beta     92.8840(10)
_cell_angle_gamma     90.00
_cell_volume     1280.20(19)
_cell_formula_units_Z     4
_cell_measurement_reflns_used     2385
_cell_measurement_theta_min     2.491
_cell_measurement_theta_max     25.021
_cell_measurement_temperature     173(2)
_exptl_crystal_description     needle
_exptl_crystal_colour     yellow
_exptl_crystal_size_max     0.50
_exptl_crystal_size_mid     0.15
_exptl_crystal_size_min     0.15
_exptl_crystal_density_diffrn     1.557
_exptl_crystal_density_meas     ?
_exptl_crystal_density_method     'not measured'
_exptl_crystal_F_000     600
_exptl_absorpt_coefficient_mu     3.195
_exptl_absorpt_correction_type     multi-scan
_exptl_absorpt_process_details     'SADABS (Blessing, 1995)'
_exptl_absorpt_correction_T_min     0.565
_exptl_absorpt_correction_T_max     0.616
_exptl_special_details
;
 ?
;
_diffrn_ambient_temperature     173(2)
_diffrn_radiation_type     MoK\a
_diffrn_radiation_wavelength     0.71073
_diffrn_radiation_source     'normal-focus sealed tube'
_diffrn_radiation_monochromator     graphite
_diffrn_measurement_device_type     'Siemens SMART Platform CCD'
_diffrn_measurement_method     'area detector, omega scans per phi'
_diffrn_detector_area_resol_mean     ?
_diffrn_reflns_number     6162
_diffrn_reflns_av_R_equivalents     0.0236
_diffrn_reflns_av_sigmaI/netI     0.0395
_diffrn_reflns_theta_min     2.04
_diffrn_reflns_theta_max     25.04
_diffrn_reflns_theta_full     25.04
_diffrn_measured_fraction_theta_max     1.000
_diffrn_measured_fraction_theta_full     1.000
_diffrn_reflns_limit_h_min     -5
_diffrn_reflns_limit_h_max     5
_diffrn_reflns_limit_k_min     -23
_diffrn_reflns_limit_k_max     23
_diffrn_reflns_limit_l_min     -16
_diffrn_reflns_limit_l_max     16
_diffrn_standards_number     ?
_diffrn_standards_interval_count     ?
_diffrn_standards_interval_time     ?
_diffrn_standards_decay_%     ?
_refine_special_details
;
 Refinement of F^2^ against ALL reflections.  The weighted R-factor wR and
 goodness of fit S are based on F^2^, conventional R-factors R are based
 on F, with F set to zero for negative F^2^. The threshold expression of
 F^2^ > 2sigma(F^2^) is used only for calculating R-factors(gt) etc. and is
 not relevant to the choice of reflections for refinement.  R-factors based
 on F^2^ are statistically about twice as large as those based on F, and R-
 factors based on ALL data will be even larger.
;
_reflns_number_total     2226
_reflns_number_gt     2132
_reflns_threshold_expression     'I>2\s(I)'
_refine_ls_structure_factor_coef     Fsqd
_refine_ls_matrix_type     full
_refine_ls_R_factor_all     0.0254
_refine_ls_R_factor_gt     0.0237
_refine_ls_wR_factor_gt     0.0525
_refine_ls_wR_factor_ref     0.0533
_refine_ls_goodness_of_fit_ref     1.062
_refine_ls_restrained_S_all     1.061
_refine_ls_number_reflns     2226
_refine_ls_number_parameters     167
_refine_ls_number_restraints     2
_refine_ls_hydrogen_treatment     mixed
_refine_ls_weighting_scheme     calc
_refine_ls_weighting_details
         'calc w=1/[\s^2^(Fo^2^)+(0.0003P)^2^+0.4653P] where P=(Fo^2^+2Fc^2^)/3'
_atom_sites_solution_hydrogens     geom
_atom_sites_solution_primary     direct
_atom_sites_solution_secondary     difmap
_refine_ls_shift/su_max     0.002
_refine_ls_shift/su_mean     0.000
_refine_diff_density_max     0.292
_refine_diff_density_min     -0.344
_refine_ls_extinction_method     none
_refine_ls_extinction_coef     ?
_refine_ls_abs_structure_details     'Flack H D (1983), 1085 Friedel pairs'
_refine_ls_abs_structure_Flack     0.030(9)
loop_
    _atom_type_symbol
    _atom_type_description
    _atom_type_scat_dispersion_real
    _atom_type_scat_dispersion_imag
    _atom_type_scat_source
    'C' 'C' 0.0033 0.0016
                         'International Tables Vol C Tables 4.2.6.8 and 6.1.1.4'
    'H' 'H' 0.0000 0.0000
                         'International Tables Vol C Tables 4.2.6.8 and 6.1.1.4'
    'N' 'N' 0.0061 0.0033
                         'International Tables Vol C Tables 4.2.6.8 and 6.1.1.4'
    'Br' 'Br' -0.2901 2.4595
                         'International Tables Vol C Tables 4.2.6.8 and 6.1.1.4'
_computing_data_collection     'SMART, Bruker'
_computing_cell_refinement     'SAINT, Bruker'
_computing_data_reduction     'SAINT, Bruker'
_computing_structure_solution     'SHELXS-97 (Sheldrick, 1990)'
_computing_structure_refinement     'SHELXL-97 (Sheldrick, 1997)'
_computing_molecular_graphics     'PLATON (Spek, 2003)'
_computing_publication_material     'SHELXL97 (Sheldrick, 1997)'
loop_
    _atom_site_type_symbol
    _atom_site_label
    _atom_site_fract_x
    _atom_site_fract_y
    _atom_site_fract_z
    _atom_site_U_iso_or_equiv
    _atom_site_adp_type
    _atom_site_calc_flag
    _atom_site_refinement_flags
    _atom_site_occupancy
    _atom_site_disorder_assembly
    _atom_site_disorder_group
    Br Br1 1.13943(7) 0.550056(15) 0.83579(4) 0.05249(11) Uani d . 1 . .
    C C1 0.8386(5) 0.51825(13) 0.66030(18) 0.0285(6) Uani d . 1 . .
    C C2 1.0395(6) 0.49538(15) 0.73042(19) 0.0350(6) Uani d . 1 . .
    C C3 1.1681(7) 0.43223(16) 0.7258(2) 0.0432(8) Uani d . 1 . .
    H H3 1.3056 0.4177 0.7742 0.052 Uiso calc R 1 . .
    C C4 1.0966(7) 0.39063(15) 0.6511(2) 0.0454(8) Uani d . 1 . .
    H H4 1.1817 0.3471 0.6483 0.054 Uiso calc R 1 . .
    C C5 0.9008(7) 0.41271(16) 0.5806(3) 0.0418(8) Uani d . 1 . .
    H H5 0.8527 0.3844 0.5287 0.050 Uiso calc R 1 . .
    C C6 0.7729(6) 0.47606(14) 0.5846(2) 0.0349(6) Uani d . 1 . .
    H H6 0.6393 0.4907 0.5352 0.042 Uiso calc R 1 . .
    C C7 0.1537(5) 0.67997(13) 0.53650(18) 0.0247(5) Uani d . 1 . .
    C C8 0.0438(5) 0.63803(13) 0.46481(18) 0.0298(6) Uani d . 1 . .
    H H8 0.1104 0.5929 0.4622 0.036 Uiso calc R 1 . .
    C C9 -0.1601(6) 0.66159(13) 0.39783(19) 0.0311(6) Uani d . 1 . .
    H H9 -0.2360 0.6325 0.3498 0.037 Uiso calc R 1 . .
    C C10 -0.2552(5) 0.72776(14) 0.40034(19) 0.0292(6) Uani d . 1 . .
    C C11 -0.1496(6) 0.77009(14) 0.47230(19) 0.0331(6) Uani d . 1 . .
    H H11 -0.2160 0.8153 0.4747 0.040 Uiso calc R 1 . .
    C C12 0.0517(6) 0.74570(13) 0.53980(18) 0.0315(6) Uani d . 1 . .
    H H12 0.1218 0.7742 0.5893 0.038 Uiso calc R 1 . .
    C C13 0.3783(5) 0.65707(13) 0.60761(18) 0.0277(6) Uani d . 1 . .
    H H13 0.4371 0.6853 0.6588 0.033 Uiso calc R 1 . .
    C C14 -0.4640(6) 0.75373(15) 0.3291(2) 0.0362(7) Uani d . 1 . .
    H H1N 0.757(6) 0.6049(14) 0.7038(19) 0.016(7) Uiso d . 1 . .
    N N1 0.4941(5) 0.59865(12) 0.59998(16) 0.0267(5) Uani d . 1 . .
    N N2 0.7051(5) 0.58045(12) 0.66635(17) 0.0308(5) Uani d . 1 . .
    N N3 -0.6304(6) 0.77423(14) 0.27314(19) 0.0510(7) Uani d . 1 . .
loop_
    _atom_site_aniso_label
    _atom_site_aniso_U_11
    _atom_site_aniso_U_22
    _atom_site_aniso_U_33
    _atom_site_aniso_U_12
    _atom_site_aniso_U_13
    _atom_site_aniso_U_23
    Br1 0.05700(18) 0.0653(2) 0.03371(15) 0.0195(2) -0.01200(11) -0.0019(2)
    C1 0.0238(12) 0.0277(14) 0.0344(15) 0.0028(11) 0.0064(11) 0.0072(11)
    C2 0.0344(15) 0.0421(17) 0.0289(15) 0.0016(12) 0.0053(11) 0.0100(12)
    C3 0.0391(16) 0.0486(19) 0.0430(18) 0.0187(14) 0.0113(13) 0.0182(14)
    C4 0.0509(18) 0.0345(18) 0.052(2) 0.0136(14) 0.0156(16) 0.0087(15)
    C5 0.0400(17) 0.0383(18) 0.0481(19) 0.0017(14) 0.0110(15) 0.0025(15)
    C6 0.0326(14) 0.0330(15) 0.0391(16) -0.0013(12) 0.0016(12) 0.0022(13)
    C7 0.0218(12) 0.0269(14) 0.0255(13) -0.0036(10) 0.0012(9) -0.0004(10)
    C8 0.0293(13) 0.0280(15) 0.0321(15) 0.0024(11) 0.0006(11) -0.0015(11)
    C9 0.0294(13) 0.0354(16) 0.0281(13) -0.0032(11) -0.0021(11) -0.0061(11)
    C10 0.0206(13) 0.0417(16) 0.0255(14) 0.0016(11) 0.0025(10) 0.0033(12)
    C11 0.0347(15) 0.0297(15) 0.0348(16) 0.0074(12) 0.0013(12) -0.0007(12)
    C12 0.0319(14) 0.0326(15) 0.0295(14) 0.0006(12) -0.0020(11) -0.0055(12)
    C13 0.0253(13) 0.0311(15) 0.0265(13) -0.0006(11) -0.0013(10) -0.0019(11)
    C14 0.0354(15) 0.0427(17) 0.0303(15) 0.0010(12) 0.0004(15) 0.0042(14)
    N1 0.0219(11) 0.0299(13) 0.0279(12) 0.0014(9) -0.0016(9) 0.0041(10)
    N2 0.0313(12) 0.0305(13) 0.0298(13) 0.0026(11) -0.0053(10) -0.0024(11)
    N3 0.0434(15) 0.0665(19) 0.0420(16) 0.0056(13) -0.0087(13) 0.0144(14)
_geom_special_details
;
 All esds (except the esd in the dihedral angle between two l.s. planes)
 are estimated using the full covariance matrix.  The cell esds are taken
 into account individually in the estimation of esds in distances, angles
 and torsion angles; correlations between esds in cell parameters are only
 used when they are defined by crystal symmetry.  An approximate (isotropic)
 treatment of cell esds is used for estimating esds involving l.s. planes.
;
loop_
    _geom_bond_atom_site_label_1
    _geom_bond_atom_site_label_2
    _geom_bond_site_symmetry_2
    _geom_bond_distance
    _geom_bond_publ_flag
    Br1 C2 . 1.897(3) y
    C1 N2 . 1.382(3) y
    C1 C6 . 1.392(4) n
    C1 C2 . 1.392(4) n
    C2 C3 . 1.388(4) n
    C3 C4 . 1.379(5) n
    C3 H3 . 0.95 n
    C4 C5 . 1.377(5) n
    C4 H4 . 0.95 n
    C5 C6 . 1.390(4) n
    C5 H5 . 0.95 n
    C6 H6 . 0.95 n
    C7 C12 . 1.390(4) n
    C7 C8 . 1.395(3) n
    C7 C13 . 1.469(3) y
    C8 C9 . 1.375(4) n
    C8 H8 . 0.95 n
    C9 C10 . 1.388(4) n
    C9 H9 . 0.95 n
    C10 C11 . 1.396(4) n
    C10 C14 . 1.446(4) y
    C11 C12 . 1.378(4) n
    C11 H11 . 0.95 n
    C12 H12 . 0.95 n
    C13 N1 . 1.283(3) y
    C13 H13 . 0.95 n
    C14 N3 . 1.143(3) y
    N1 N2 . 1.357(3) y
    N2 H1N . 0.75(3) n
loop_
    _geom_angle_atom_site_label_1
    _geom_angle_atom_site_label_2
    _geom_angle_atom_site_label_3
    _geom_angle_site_symmetry_1
    _geom_angle_site_symmetry_3
    _geom_angle
    _geom_angle_publ_flag
    N2 C1 C6 . . 121.0(2) n
    N2 C1 C2 . . 121.1(2) n
    C6 C1 C2 . . 117.9(2) n
    C3 C2 C1 . . 121.3(3) n
    C3 C2 Br1 . . 118.4(2) n
    C1 C2 Br1 . . 120.3(2) n
    C4 C3 C2 . . 120.1(3) n
    C4 C3 H3 . . 120 n
    C2 C3 H3 . . 120 n
    C5 C4 C3 . . 119.5(3) n
    C5 C4 H4 . . 120 n
    C3 C4 H4 . . 120 n
    C4 C5 C6 . . 120.7(3) n
    C4 C5 H5 . . 120 n
    C6 C5 H5 . . 120 n
    C5 C6 C1 . . 120.6(3) n
    C5 C6 H6 . . 120 n
    C1 C6 H6 . . 120 n
    C12 C7 C8 . . 119.0(2) n
    C12 C7 C13 . . 119.0(2) n
    C8 C7 C13 . . 121.9(2) n
    C9 C8 C7 . . 120.5(2) n
    C9 C8 H8 . . 120 n
    C7 C8 H8 . . 120 n
    C8 C9 C10 . . 120.1(2) n
    C8 C9 H9 . . 120 n
    C10 C9 H9 . . 120 n
    C9 C10 C11 . . 120.0(2) n
    C9 C10 C14 . . 120.8(3) n
    C11 C10 C14 . . 119.2(2) n
    C12 C11 C10 . . 119.4(2) n
    C12 C11 H11 . . 120 n
    C10 C11 H11 . . 120 n
    C11 C12 C7 . . 121.0(2) n
    C11 C12 H12 . . 120 n
    C7 C12 H12 . . 120 n
    N1 C13 C7 . . 119.4(2) y
    N1 C13 H13 . . 120 n
    C7 C13 H13 . . 120 n
    N3 C14 C10 . . 179.6(4) y
    C13 N1 N2 . . 117.1(2) y
    N1 N2 C1 . . 119.1(2) y
    N1 N2 H1N . . 120(2) n
    C1 N2 H1N . . 120(2) n
loop_
    _geom_torsion_atom_site_label_1
    _geom_torsion_atom_site_label_2
    _geom_torsion_atom_site_label_3
    _geom_torsion_atom_site_label_4
    _geom_torsion_site_symmetry_1
    _geom_torsion_site_symmetry_2
    _geom_torsion_site_symmetry_3
    _geom_torsion_site_symmetry_4
    _geom_torsion
    _geom_torsion_publ_flag
    N2 C1 C2 C3 . . . . 178.3(2) n
    C6 C1 C2 C3 . . . . -0.7(4) n
    N2 C1 C2 Br1 . . . . -0.9(3) n
    C6 C1 C2 Br1 . . . . -179.92(19) n
    C1 C2 C3 C4 . . . . -0.4(4) n
    Br1 C2 C3 C4 . . . . 178.9(2) n
    C2 C3 C4 C5 . . . . 1.1(4) n
    C3 C4 C5 C6 . . . . -0.7(5) n
    C4 C5 C6 C1 . . . . -0.4(5) n
    N2 C1 C6 C5 . . . . -177.9(3) n
    C2 C1 C6 C5 . . . . 1.1(4) n
    C12 C7 C8 C9 . . . . 0.7(4) n
    C13 C7 C8 C9 . . . . -178.2(2) n
    C7 C8 C9 C10 . . . . 0.9(4) n
    C8 C9 C10 C11 . . . . -1.6(4) n
    C8 C9 C10 C14 . . . . 178.5(3) n
    C9 C10 C11 C12 . . . . 0.8(4) n
    C14 C10 C11 C12 . . . . -179.3(3) n
    C10 C11 C12 C7 . . . . 0.8(4) n
    C8 C7 C12 C11 . . . . -1.6(4) n
    C13 C7 C12 C11 . . . . 177.3(2) n
    C12 C7 C13 N1 . . . . -173.4(2) n
    C8 C7 C13 N1 . . . . 5.4(4) y
    C7 C13 N1 N2 . . . . 178.6(2) y
    C13 N1 N2 C1 . . . . -179.2(2) y
    C6 C1 N2 N1 . . . . 3.9(4) y
    C2 C1 N2 N1 . . . . -175.1(2) n
loop_
    _geom_hbond_atom_site_label_D
    _geom_hbond_atom_site_label_H
    _geom_hbond_atom_site_label_A
    _geom_hbond_site_symmetry_A
    _geom_hbond_distance_DH
    _geom_hbond_distance_HA
    _geom_hbond_distance_DA
    _geom_hbond_angle_DHA
    N2 H1N N3 4_665 0.75(3) 2.64(3) 3.341(4) 155(3)
    N2 H1N Br1 . 0.75(3) 2.72(3) 3.095(2) 113(2)
data_III
_audit_creation_method     SHELXL-97
_journal_date_recd_electronic     2007-01-04
_journal_date_accepted     2007-04-11
_journal_name_full     'Acta Crystallographica, Section B'
_journal_year     2007
_journal_volume     63
_journal_issue      3
_journal_page_first     485
_journal_page_last     496
_journal_paper_category     FA
_journal_coeditor_code     GP5015
_chemical_name_systematic
;
 N-(2-trifluoromethylbenzylidene)-2-methylaniline
;
_chemical_name_common     ?
_chemical_formula_moiety     'C15 H12 F3 N'
_chemical_formula_sum     'C15 H12 F3 N'
_chemical_formula_weight     263.26
_chemical_melting_point       .53E-54
_symmetry_cell_setting     monoclinic
_symmetry_space_group_name_H-M     'P 1 21/c 1'
loop_
    _symmetry_equiv_pos_as_xyz
    'x, y, z'
    '-x, y+1/2, -z+1/2'
    '-x, -y, -z'
    'x, -y-1/2, z-1/2'
_cell_length_a     9.6046(6)
_cell_length_b     7.7953(5)
_cell_length_c     17.2756(11)
_cell_angle_alpha     90.00
_cell_angle_beta     104.3160(10)
_cell_angle_gamma     90.00
_cell_volume     1253.27(14)
_cell_formula_units_Z     4
_cell_measurement_reflns_used     2822
_cell_measurement_theta_min     2.613
_cell_measurement_theta_max     25.045
_cell_measurement_temperature     173(2)
_exptl_crystal_description     prism
_exptl_crystal_colour     yellow
_exptl_crystal_size_max     0.50
_exptl_crystal_size_mid     0.50
_exptl_crystal_size_min     0.18
_exptl_crystal_density_diffrn     1.395
_exptl_crystal_density_meas     ?
_exptl_crystal_density_method     'not measured'
_exptl_crystal_F_000     544
_exptl_absorpt_coefficient_mu     0.113
_exptl_absorpt_correction_type     multi-scan
_exptl_absorpt_process_details     'SADABS (Blessing, 1995)'
_exptl_absorpt_correction_T_min     0.942
_exptl_absorpt_correction_T_max     0.977
_exptl_special_details
;
 ?
;
_diffrn_ambient_temperature     173(2)
_diffrn_radiation_type     MoK\a
_diffrn_radiation_wavelength     0.71073
_diffrn_radiation_source     'normal-focus sealed tube'
_diffrn_radiation_monochromator     graphite
_diffrn_measurement_device_type     'Siemens SMART Platform CCD'
_diffrn_measurement_method     'area detector, omega scans per phi'
_diffrn_detector_area_resol_mean     ?
_diffrn_reflns_number     11890
_diffrn_reflns_av_R_equivalents     0.0184
_diffrn_reflns_av_sigmaI/netI     0.0115
_diffrn_reflns_theta_min     2.19
_diffrn_reflns_theta_max     25.05
_diffrn_reflns_theta_full     25.05
_diffrn_measured_fraction_theta_max     1.000
_diffrn_measured_fraction_theta_full     1.000
_diffrn_reflns_limit_h_min     -11
_diffrn_reflns_limit_h_max     11
_diffrn_reflns_limit_k_min     -9
_diffrn_reflns_limit_k_max     9
_diffrn_reflns_limit_l_min     -20
_diffrn_reflns_limit_l_max     20
_diffrn_standards_number     ?
_diffrn_standards_interval_count     ?
_diffrn_standards_interval_time     ?
_diffrn_standards_decay_%     ?
_refine_special_details
;
 Refinement of F^2^ against ALL reflections.  The weighted R-factor wR and
 goodness of fit S are based on F^2^, conventional R-factors R are based
 on F, with F set to zero for negative F^2^. The threshold expression of
 F^2^ > 2sigma(F^2^) is used only for calculating R-factors(gt) etc. and is
 not relevant to the choice of reflections for refinement.  R-factors based
 on F^2^ are statistically about twice as large as those based on F, and R-
 factors based on ALL data will be even larger.
;
_reflns_number_total     2226
_reflns_number_gt     2044
_reflns_threshold_expression     'I>2\s(I)'
_refine_ls_structure_factor_coef     Fsqd
_refine_ls_matrix_type     full
_refine_ls_R_factor_all     0.0350
_refine_ls_R_factor_gt     0.0322
_refine_ls_wR_factor_gt     0.0821
_refine_ls_wR_factor_ref     0.0840
_refine_ls_goodness_of_fit_ref     1.047
_refine_ls_restrained_S_all     1.047
_refine_ls_number_reflns     2226
_refine_ls_number_parameters     173
_refine_ls_number_restraints     0
_refine_ls_hydrogen_treatment     constr
_refine_ls_weighting_scheme     calc
_refine_ls_weighting_details
         'calc w=1/[\s^2^(Fo^2^)+(0.0424P)^2^+0.3704P] where P=(Fo^2^+2Fc^2^)/3'
_atom_sites_solution_hydrogens     geom
_atom_sites_solution_primary     direct
_atom_sites_solution_secondary     difmap
_refine_ls_shift/su_max     0.000
_refine_ls_shift/su_mean     0.000
_refine_diff_density_max     0.158
_refine_diff_density_min     -0.238
_refine_ls_extinction_method     none
_refine_ls_extinction_coef     ?
loop_
    _atom_type_symbol
    _atom_type_description
    _atom_type_scat_dispersion_real
    _atom_type_scat_dispersion_imag
    _atom_type_scat_source
    'C' 'C' 0.0033 0.0016
                         'International Tables Vol C Tables 4.2.6.8 and 6.1.1.4'
    'H' 'H' 0.0000 0.0000
                         'International Tables Vol C Tables 4.2.6.8 and 6.1.1.4'
    'N' 'N' 0.0061 0.0033
                         'International Tables Vol C Tables 4.2.6.8 and 6.1.1.4'
    'F' 'F' 0.0171 0.0103
                         'International Tables Vol C Tables 4.2.6.8 and 6.1.1.4'
_computing_data_collection     'SMART, Bruker'
_computing_cell_refinement     'SAINT, Bruker'
_computing_data_reduction     'SAINT, Bruker'
_computing_structure_solution     'SHELXS-97 (Sheldrick, 1990)'
_computing_structure_refinement     'SHELXL-97 (Sheldrick, 1997)'
_computing_molecular_graphics     'PLATON (Spek, 2003)'
_computing_publication_material     'SHELXL97 (Sheldrick, 1997)'
loop_
    _atom_site_type_symbol
    _atom_site_label
    _atom_site_fract_x
    _atom_site_fract_y
    _atom_site_fract_z
    _atom_site_U_iso_or_equiv
    _atom_site_adp_type
    _atom_site_calc_flag
    _atom_site_refinement_flags
    _atom_site_occupancy
    _atom_site_disorder_assembly
    _atom_site_disorder_group
    C C1 0.81615(12) 0.31839(15) 0.67401(7) 0.0259(3) Uani d . 1 . .
    C C2 0.83251(12) 0.29787(15) 0.59572(7) 0.0254(3) Uani d . 1 . .
    C C3 0.86367(13) 0.43809(15) 0.55326(7) 0.0286(3) Uani d . 1 . .
    H H3 0.8717 0.4235 0.4999 0.034 Uiso calc R 1 . .
    C C4 0.88304(13) 0.59866(16) 0.58824(7) 0.0319(3) Uani d . 1 . .
    H H4 0.9041 0.6943 0.5590 0.038 Uiso calc R 1 . .
    C C5 0.87172(13) 0.61984(16) 0.66604(8) 0.0329(3) Uani d . 1 . .
    H H5 0.8875 0.7295 0.6906 0.039 Uiso calc R 1 . .
    C C6 0.83758(13) 0.48180(16) 0.70803(7) 0.0306(3) Uani d . 1 . .
    H H6 0.8285 0.4984 0.7610 0.037 Uiso calc R 1 . .
    C C7 0.70149(12) 0.06438(16) 0.82767(7) 0.0279(3) Uani d . 1 . .
    C C8 0.58432(13) 0.09306(17) 0.86128(7) 0.0317(3) Uani d . 1 . .
    C C9 0.53825(14) -0.04296(19) 0.90076(7) 0.0381(3) Uani d . 1 . .
    H H9 0.4579 -0.0270 0.9229 0.046 Uiso calc R 1 . .
    C C10 0.60612(15) -0.20075(19) 0.90871(8) 0.0412(3) Uani d . 1 . .
    H H10 0.5719 -0.2916 0.9357 0.049 Uiso calc R 1 . .
    C C11 0.72407(15) -0.22637(18) 0.87726(7) 0.0376(3) Uani d . 1 . .
    H H11 0.7721 -0.3339 0.8834 0.045 Uiso calc R 1 . .
    C C12 0.77132(13) -0.09359(16) 0.83665(7) 0.0309(3) Uani d . 1 . .
    H H12 0.8519 -0.1106 0.8148 0.037 Uiso calc R 1 . .
    C C13 0.77001(13) 0.17741(16) 0.71927(7) 0.0286(3) Uani d . 1 . .
    H H13 0.7566 0.0656 0.6968 0.034 Uiso calc R 1 . .
    C C14 0.81929(14) 0.12502(16) 0.55689(7) 0.0327(3) Uani d . 1 . .
    C C15 0.50997(15) 0.2643(2) 0.85248(9) 0.0434(3) Uani d . 1 . .
    H H15A 0.4543 0.2790 0.7971 0.065 Uiso calc R 1 . .
    H H15B 0.5818 0.3558 0.8663 0.065 Uiso calc R 1 . .
    H H15C 0.4453 0.2697 0.8883 0.065 Uiso calc R 1 . .
    F F1 0.84711(10) 0.12733(10) 0.48491(5) 0.0467(2) Uani d . 1 . .
    F F2 0.68798(9) 0.05598(11) 0.54664(5) 0.0496(2) Uani d . 1 . .
    F F3 0.91184(10) 0.01162(10) 0.60088(5) 0.0489(2) Uani d . 1 . .
    N N1 0.74822(11) 0.20368(13) 0.78761(6) 0.0302(2) Uani d . 1 . .
loop_
    _atom_site_aniso_label
    _atom_site_aniso_U_11
    _atom_site_aniso_U_22
    _atom_site_aniso_U_33
    _atom_site_aniso_U_12
    _atom_site_aniso_U_13
    _atom_site_aniso_U_23
    C1 0.0253(6) 0.0267(6) 0.0261(6) 0.0007(5) 0.0072(4) 0.0005(5)
    C2 0.0245(5) 0.0257(6) 0.0263(6) 0.0010(5) 0.0065(4) -0.0004(5)
    C3 0.0309(6) 0.0298(6) 0.0265(6) 0.0011(5) 0.0096(5) 0.0023(5)
    C4 0.0363(7) 0.0246(6) 0.0360(7) -0.0001(5) 0.0111(5) 0.0048(5)
    C5 0.0366(7) 0.0238(6) 0.0387(7) -0.0007(5) 0.0101(5) -0.0040(5)
    C6 0.0350(6) 0.0308(6) 0.0273(6) -0.0005(5) 0.0099(5) -0.0034(5)
    C7 0.0293(6) 0.0332(6) 0.0201(5) -0.0045(5) 0.0038(4) -0.0001(5)
    C8 0.0274(6) 0.0434(7) 0.0231(6) -0.0023(5) 0.0038(5) -0.0004(5)
    C9 0.0305(6) 0.0559(9) 0.0287(6) -0.0081(6) 0.0089(5) 0.0027(6)
    C10 0.0456(8) 0.0461(8) 0.0315(7) -0.0143(6) 0.0086(6) 0.0076(6)
    C11 0.0468(8) 0.0336(7) 0.0306(7) -0.0024(6) 0.0059(6) 0.0029(5)
    C12 0.0342(6) 0.0351(7) 0.0236(6) -0.0019(5) 0.0077(5) -0.0007(5)
    C13 0.0319(6) 0.0268(6) 0.0272(6) -0.0017(5) 0.0078(5) -0.0008(5)
    C14 0.0427(7) 0.0290(6) 0.0294(6) -0.0035(5) 0.0145(5) -0.0016(5)
    C15 0.0374(7) 0.0510(9) 0.0434(8) 0.0073(6) 0.0130(6) 0.0008(7)
    F1 0.0758(6) 0.0367(4) 0.0356(4) -0.0064(4) 0.0292(4) -0.0088(3)
    F2 0.0566(5) 0.0463(5) 0.0493(5) -0.0238(4) 0.0194(4) -0.0176(4)
    F3 0.0714(6) 0.0266(4) 0.0507(5) 0.0114(4) 0.0191(4) 0.0020(3)
    N1 0.0320(5) 0.0323(6) 0.0277(5) -0.0011(4) 0.0099(4) 0.0017(4)
_geom_special_details
;
 All esds (except the esd in the dihedral angle between two l.s. planes)
 are estimated using the full covariance matrix.  The cell esds are taken
 into account individually in the estimation of esds in distances, angles
 and torsion angles; correlations between esds in cell parameters are only
 used when they are defined by crystal symmetry.  An approximate (isotropic)
 treatment of cell esds is used for estimating esds involving l.s. planes.
;
loop_
    _geom_bond_atom_site_label_1
    _geom_bond_atom_site_label_2
    _geom_bond_site_symmetry_2
    _geom_bond_distance
    _geom_bond_publ_flag
    C1 C6 . 1.3967(17) n
    C1 C2 . 1.4088(16) n
    C1 C13 . 1.4788(16) y
    C2 C3 . 1.3896(16) n
    C2 C14 . 1.4965(17) y
    C3 C4 . 1.3824(17) n
    C3 H3 . 0.95 n
    C4 C5 . 1.3849(17) n
    C4 H4 . 0.95 n
    C5 C6 . 1.3817(18) n
    C5 H5 . 0.95 n
    C6 H6 . 0.95 n
    C7 C12 . 1.3924(18) n
    C7 C8 . 1.4060(17) n
    C7 N1 . 1.4189(15) y
    C8 C9 . 1.3909(19) n
    C8 C15 . 1.5038(19) y
    C9 C10 . 1.383(2) n
    C9 H9 . 0.95 n
    C10 C11 . 1.387(2) n
    C10 H10 . 0.95 n
    C11 C12 . 1.3881(18) n
    C11 H11 . 0.95 n
    C12 H12 . 0.95 n
    C13 N1 . 1.2655(15) y
    C13 H13 . 0.95 n
    C14 F1 . 1.3349(14) y
    C14 F2 . 1.3421(15) y
    C14 F3 . 1.3473(15) y
    C15 H15A . 0.98 n
    C15 H15B . 0.98 n
    C15 H15C . 0.98 n
loop_
    _geom_angle_atom_site_label_1
    _geom_angle_atom_site_label_2
    _geom_angle_atom_site_label_3
    _geom_angle_site_symmetry_1
    _geom_angle_site_symmetry_3
    _geom_angle
    _geom_angle_publ_flag
    C6 C1 C2 . . 117.89(11) n
    C6 C1 C13 . . 119.18(10) n
    C2 C1 C13 . . 122.85(10) n
    C3 C2 C1 . . 120.48(11) n
    C3 C2 C14 . . 118.49(10) n
    C1 C2 C14 . . 121.02(10) n
    C4 C3 C2 . . 120.31(11) n
    C4 C3 H3 . . 120 n
    C2 C3 H3 . . 120 n
    C3 C4 C5 . . 119.86(11) n
    C3 C4 H4 . . 120 n
    C5 C4 H4 . . 120 n
    C6 C5 C4 . . 120.16(11) n
    C6 C5 H5 . . 120 n
    C4 C5 H5 . . 120 n
    C5 C6 C1 . . 121.25(11) n
    C5 C6 H6 . . 119 n
    C1 C6 H6 . . 119 n
    C12 C7 C8 . . 120.49(11) n
    C12 C7 N1 . . 121.97(10) n
    C8 C7 N1 . . 117.50(11) n
    C9 C8 C7 . . 117.74(12) n
    C9 C8 C15 . . 121.71(12) n
    C7 C8 C15 . . 120.53(12) n
    C10 C9 C8 . . 121.83(12) n
    C10 C9 H9 . . 119 n
    C8 C9 H9 . . 119 n
    C9 C10 C11 . . 119.99(12) n
    C9 C10 H10 . . 120 n
    C11 C10 H10 . . 120 n
    C10 C11 C12 . . 119.44(13) n
    C10 C11 H11 . . 120 n
    C12 C11 H11 . . 120 n
    C11 C12 C7 . . 120.47(12) n
    C11 C12 H12 . . 120 n
    C7 C12 H12 . . 120 n
    N1 C13 C1 . . 120.89(11) y
    N1 C13 H13 . . 120 n
    C1 C13 H13 . . 120 n
    F1 C14 F2 . . 106.29(10) y
    F1 C14 F3 . . 106.15(10) y
    F2 C14 F3 . . 106.18(10) y
    F1 C14 C2 . . 113.02(10) y
    F2 C14 C2 . . 113.14(10) y
    F3 C14 C2 . . 111.52(10) y
    C8 C15 H15A . . 110 n
    C8 C15 H15B . . 110 n
    H15A C15 H15B . . 110 n
    C8 C15 H15C . . 110 n
    H15A C15 H15C . . 110 n
    H15B C15 H15C . . 110 n
    C13 N1 C7 . . 118.45(11) y
loop_
    _geom_torsion_atom_site_label_1
    _geom_torsion_atom_site_label_2
    _geom_torsion_atom_site_label_3
    _geom_torsion_atom_site_label_4
    _geom_torsion_site_symmetry_1
    _geom_torsion_site_symmetry_2
    _geom_torsion_site_symmetry_3
    _geom_torsion_site_symmetry_4
    _geom_torsion
    _geom_torsion_publ_flag
    C6 C1 C2 C3 . . . . -2.36(17) n
    C13 C1 C2 C3 . . . . 174.24(11) n
    C6 C1 C2 C14 . . . . 176.60(11) n
    C13 C1 C2 C14 . . . . -6.79(17) n
    C1 C2 C3 C4 . . . . 1.85(17) n
    C14 C2 C3 C4 . . . . -177.14(11) n
    C2 C3 C4 C5 . . . . 0.17(18) n
    C3 C4 C5 C6 . . . . -1.62(19) n
    C4 C5 C6 C1 . . . . 1.06(19) n
    C2 C1 C6 C5 . . . . 0.92(18) n
    C13 C1 C6 C5 . . . . -175.81(11) n
    C12 C7 C8 C9 . . . . -2.31(17) n
    N1 C7 C8 C9 . . . . -179.87(10) n
    C12 C7 C8 C15 . . . . 179.25(11) n
    N1 C7 C8 C15 . . . . 1.69(17) n
    C7 C8 C9 C10 . . . . 1.36(19) n
    C15 C8 C9 C10 . . . . 179.78(12) n
    C8 C9 C10 C11 . . . . 0.4(2) n
    C9 C10 C11 C12 . . . . -1.18(19) n
    C10 C11 C12 C7 . . . . 0.21(19) n
    C8 C7 C12 C11 . . . . 1.57(18) n
    N1 C7 C12 C11 . . . . 179.01(11) n
    C6 C1 C13 N1 . . . . 0.87(17) y
    C2 C1 C13 N1 . . . . -175.69(11) n
    C3 C2 C14 F1 . . . . 3.11(16) n
    C1 C2 C14 F1 . . . . -175.88(10) n
    C3 C2 C14 F2 . . . . -117.76(12) n
    C1 C2 C14 F2 . . . . 63.25(15) n
    C3 C2 C14 F3 . . . . 122.62(11) n
    C1 C2 C14 F3 . . . . -56.37(15) n
    C1 C13 N1 C7 . . . . 178.84(10) y
    C12 C7 N1 C13 . . . . 50.18(16) y
    C8 C7 N1 C13 . . . . -132.30(12) n
data_IV
_audit_creation_method     SHELXL-97
_journal_date_recd_electronic     2007-01-04
_journal_date_accepted     2007-04-11
_journal_name_full     'Acta Crystallographica, Section B'
_journal_year     2007
_journal_volume     63
_journal_issue      3
_journal_page_first     485
_journal_page_last     496
_journal_paper_category     FA
_journal_coeditor_code     GP5015
_chemical_name_systematic
;
 N-(2-methylbenzylidene)-2-trifluoromethylaniline
;
_chemical_name_common     ?
_chemical_formula_moiety     'C15 H12 F3 N'
_chemical_formula_sum     'C15 H12 F3 N'
_chemical_formula_weight     263.26
_chemical_melting_point       .72E-72
_symmetry_cell_setting     monoclinic
_symmetry_space_group_name_H-M     'P 1 21/c 1'
loop_
    _symmetry_equiv_pos_as_xyz
    'x, y, z'
    '-x, y+1/2, -z+1/2'
    '-x, -y, -z'
    'x, -y-1/2, z-1/2'
_cell_length_a     9.7556(6)
_cell_length_b     7.8003(5)
_cell_length_c     16.8794(11)
_cell_angle_alpha     90.00
_cell_angle_beta     102.6470(10)
_cell_angle_gamma     90.00
_cell_volume     1253.30(14)
_cell_formula_units_Z     4
_cell_measurement_reflns_used     3523
_cell_measurement_theta_min     2.696
_cell_measurement_theta_max     25.023
_cell_measurement_temperature     173(2)
_exptl_crystal_description     prism
_exptl_crystal_colour     yellow
_exptl_crystal_size_max     0.50
_exptl_crystal_size_mid     0.35
_exptl_crystal_size_min     0.10
_exptl_crystal_density_diffrn     1.395
_exptl_crystal_density_meas     ?
_exptl_crystal_density_method     'not measured'
_exptl_crystal_F_000     544
_exptl_absorpt_coefficient_mu     0.113
_exptl_absorpt_correction_type     multi-scan
_exptl_absorpt_process_details     'SADABS (Blessing, 1995)'
_exptl_absorpt_correction_T_min     0.951
_exptl_absorpt_correction_T_max     0.986
_exptl_special_details
;
 ?
;
_diffrn_ambient_temperature     173(2)
_diffrn_radiation_type     MoK\a
_diffrn_radiation_wavelength     0.71073
_diffrn_radiation_source     'normal-focus sealed tube'
_diffrn_radiation_monochromator     graphite
_diffrn_measurement_device_type     'Siemens SMART Platform CCD'
_diffrn_measurement_method     'area detector, omega scans per phi'
_diffrn_detector_area_resol_mean     ?
_diffrn_reflns_number     10706
_diffrn_reflns_av_R_equivalents     0.0182
_diffrn_reflns_av_sigmaI/netI     0.0124
_diffrn_reflns_theta_min     2.14
_diffrn_reflns_theta_max     25.05
_diffrn_reflns_theta_full     25.05
_diffrn_measured_fraction_theta_max     0.999
_diffrn_measured_fraction_theta_full     0.999
_diffrn_reflns_limit_h_min     -11
_diffrn_reflns_limit_h_max     11
_diffrn_reflns_limit_k_min     -9
_diffrn_reflns_limit_k_max     9
_diffrn_reflns_limit_l_min     -20
_diffrn_reflns_limit_l_max     20
_diffrn_standards_number     ?
_diffrn_standards_interval_count     ?
_diffrn_standards_interval_time     ?
_diffrn_standards_decay_%     ?
_refine_special_details
;
 Refinement of F^2^ against ALL reflections.  The weighted R-factor wR and
 goodness of fit S are based on F^2^, conventional R-factors R are based
 on F, with F set to zero for negative F^2^. The threshold expression of
 F^2^ > 2sigma(F^2^) is used only for calculating R-factors(gt) etc. and is
 not relevant to the choice of reflections for refinement.  R-factors based
 on F^2^ are statistically about twice as large as those based on F, and R-
 factors based on ALL data will be even larger.
;
_reflns_number_total     2205
_reflns_number_gt     1947
_reflns_threshold_expression     'I>2\s(I)'
_refine_ls_structure_factor_coef     Fsqd
_refine_ls_matrix_type     full
_refine_ls_R_factor_all     0.0335
_refine_ls_R_factor_gt     0.0284
_refine_ls_wR_factor_gt     0.0722
_refine_ls_wR_factor_ref     0.0752
_refine_ls_goodness_of_fit_ref     1.042
_refine_ls_restrained_S_all     1.042
_refine_ls_number_reflns     2205
_refine_ls_number_parameters     173
_refine_ls_number_restraints     0
_refine_ls_hydrogen_treatment     constr
_refine_ls_weighting_scheme     calc
_refine_ls_weighting_details
         'calc w=1/[\s^2^(Fo^2^)+(0.0344P)^2^+0.3477P] where P=(Fo^2^+2Fc^2^)/3'
_atom_sites_solution_hydrogens     geom
_atom_sites_solution_primary     direct
_atom_sites_solution_secondary     difmap
_refine_ls_shift/su_max     0.000
_refine_ls_shift/su_mean     0.000
_refine_diff_density_max     0.174
_refine_diff_density_min     -0.199
_refine_ls_extinction_method     none
_refine_ls_extinction_coef     ?
loop_
    _atom_type_symbol
    _atom_type_description
    _atom_type_scat_dispersion_real
    _atom_type_scat_dispersion_imag
    _atom_type_scat_source
    'C' 'C' 0.0033 0.0016
                         'International Tables Vol C Tables 4.2.6.8 and 6.1.1.4'
    'H' 'H' 0.0000 0.0000
                         'International Tables Vol C Tables 4.2.6.8 and 6.1.1.4'
    'N' 'N' 0.0061 0.0033
                         'International Tables Vol C Tables 4.2.6.8 and 6.1.1.4'
    'F' 'F' 0.0171 0.0103
                         'International Tables Vol C Tables 4.2.6.8 and 6.1.1.4'
_computing_data_collection     'SMART, Bruker'
_computing_cell_refinement     'SAINT, Bruker'
_computing_data_reduction     'SAINT, Bruker'
_computing_structure_solution     'SHELXS-97 (Sheldrick, 1990)'
_computing_structure_refinement     'SHELXL-97 (Sheldrick, 1997)'
_computing_molecular_graphics     'PLATON (Spek, 2003)'
_computing_publication_material     'SHELXL97 (Sheldrick, 1997)'
loop_
    _atom_site_type_symbol
    _atom_site_label
    _atom_site_fract_x
    _atom_site_fract_y
    _atom_site_fract_z
    _atom_site_U_iso_or_equiv
    _atom_site_adp_type
    _atom_site_calc_flag
    _atom_site_refinement_flags
    _atom_site_occupancy
    _atom_site_disorder_assembly
    _atom_site_disorder_group
    C C1 0.82979(11) 0.31928(15) 0.67567(7) 0.0276(3) Uani d . 1 . .
    C C2 0.83504(11) 0.29677(14) 0.59359(7) 0.0268(3) Uani d . 1 . .
    C C3 0.85925(12) 0.43587(15) 0.54753(7) 0.0300(3) Uani d . 1 . .
    H H3 0.8598 0.4205 0.4918 0.036 Uiso calc R 1 . .
    C C4 0.88265(13) 0.59726(15) 0.58208(7) 0.0334(3) Uani d . 1 . .
    H H4 0.8986 0.6923 0.5501 0.040 Uiso calc R 1 . .
    C C5 0.88267(13) 0.61948(16) 0.66321(8) 0.0351(3) Uani d . 1 . .
    H H5 0.9007 0.7295 0.6874 0.042 Uiso calc R 1 . .
    C C6 0.85648(13) 0.48179(16) 0.70950(7) 0.0332(3) Uani d . 1 . .
    H H6 0.8567 0.4986 0.7653 0.040 Uiso calc R 1 . .
    C C7 0.68344(12) 0.05704(16) 0.81915(7) 0.0304(3) Uani d . 1 . .
    C C8 0.56982(12) 0.07394(17) 0.85779(7) 0.0345(3) Uani d . 1 . .
    C C9 0.53644(13) -0.06707(19) 0.90085(7) 0.0403(3) Uani d . 1 . .
    H H9 0.4584 -0.0598 0.9259 0.048 Uiso calc R 1 . .
    C C10 0.61364(15) -0.21678(19) 0.90811(8) 0.0444(3) Uani d . 1 . .
    H H10 0.5876 -0.3112 0.9372 0.053 Uiso calc R 1 . .
    C C11 0.72905(15) -0.22966(17) 0.87299(7) 0.0411(3) Uani d . 1 . .
    H H11 0.7843 -0.3310 0.8795 0.049 Uiso calc R 1 . .
    C C12 0.76286(14) -0.09337(16) 0.82843(7) 0.0348(3) Uani d . 1 . .
    H H12 0.8413 -0.1023 0.8038 0.042 Uiso calc R 1 . .
    C C13 0.71667(12) 0.19602(16) 0.76752(7) 0.0314(3) Uani d . 1 . .
    H H13 0.6727 0.3043 0.7688 0.038 Uiso calc R 1 . .
    C C14 0.81465(13) 0.12270(16) 0.55612(7) 0.0348(3) Uani d . 1 . .
    C C15 0.48607(14) 0.2367(2) 0.85462(9) 0.0469(3) Uani d . 1 . .
    H H15A 0.4398 0.2617 0.7982 0.070 Uiso calc R 1 . .
    H H15B 0.5489 0.3315 0.8765 0.070 Uiso calc R 1 . .
    H H15C 0.4149 0.2230 0.8871 0.070 Uiso calc R 1 . .
    F F1 0.81686(9) 0.12510(10) 0.47670(4) 0.0493(2) Uani d . 1 . .
    F F2 0.69248(9) 0.04986(11) 0.56063(5) 0.0546(2) Uani d . 1 . .
    F F3 0.91580(9) 0.01252(10) 0.59049(5) 0.0520(2) Uani d . 1 . .
    N N1 0.80251(10) 0.17592(13) 0.72118(6) 0.0310(2) Uani d . 1 . .
loop_
    _atom_site_aniso_label
    _atom_site_aniso_U_11
    _atom_site_aniso_U_22
    _atom_site_aniso_U_33
    _atom_site_aniso_U_12
    _atom_site_aniso_U_13
    _atom_site_aniso_U_23
    C1 0.0256(5) 0.0293(6) 0.0284(6) 0.0018(5) 0.0066(4) 0.0019(5)
    C2 0.0248(5) 0.0271(6) 0.0290(6) 0.0011(5) 0.0072(4) -0.0007(5)
    C3 0.0317(6) 0.0317(6) 0.0279(6) 0.0014(5) 0.0091(5) 0.0018(5)
    C4 0.0367(6) 0.0263(6) 0.0389(7) 0.0005(5) 0.0115(5) 0.0042(5)
    C5 0.0361(6) 0.0277(6) 0.0416(7) -0.0019(5) 0.0091(5) -0.0070(5)
    C6 0.0353(6) 0.0364(7) 0.0288(6) -0.0008(5) 0.0092(5) -0.0050(5)
    C7 0.0319(6) 0.0367(6) 0.0220(5) -0.0053(5) 0.0044(5) -0.0017(5)
    C8 0.0287(6) 0.0471(7) 0.0260(6) -0.0049(5) 0.0026(5) -0.0014(5)
    C9 0.0353(7) 0.0567(9) 0.0295(6) -0.0117(6) 0.0083(5) 0.0008(6)
    C10 0.0552(8) 0.0459(8) 0.0322(7) -0.0156(7) 0.0096(6) 0.0046(6)
    C11 0.0570(8) 0.0345(7) 0.0321(7) -0.0022(6) 0.0102(6) 0.0011(5)
    C12 0.0424(7) 0.0363(7) 0.0272(6) -0.0020(6) 0.0112(5) -0.0021(5)
    C13 0.0322(6) 0.0337(6) 0.0278(6) -0.0008(5) 0.0053(5) -0.0007(5)
    C14 0.0424(7) 0.0307(6) 0.0342(6) -0.0028(5) 0.0143(5) -0.0016(5)
    C15 0.0340(7) 0.0608(9) 0.0477(8) 0.0069(6) 0.0133(6) 0.0044(7)
    F1 0.0777(6) 0.0395(4) 0.0349(4) -0.0067(4) 0.0215(4) -0.0103(3)
    F2 0.0585(5) 0.0492(5) 0.0609(5) -0.0262(4) 0.0239(4) -0.0188(4)
    F3 0.0693(6) 0.0289(4) 0.0586(5) 0.0124(4) 0.0160(4) -0.0007(4)
    N1 0.0336(5) 0.0332(5) 0.0264(5) -0.0010(4) 0.0072(4) 0.0027(4)
_geom_special_details
;
 All esds (except the esd in the dihedral angle between two l.s. planes)
 are estimated using the full covariance matrix.  The cell esds are taken
 into account individually in the estimation of esds in distances, angles
 and torsion angles; correlations between esds in cell parameters are only
 used when they are defined by crystal symmetry.  An approximate (isotropic)
 treatment of cell esds is used for estimating esds involving l.s. planes.
;
loop_
    _geom_bond_atom_site_label_1
    _geom_bond_atom_site_label_2
    _geom_bond_site_symmetry_2
    _geom_bond_distance
    _geom_bond_publ_flag
    C1 C6 . 1.3913(17) n
    C1 C2 . 1.4086(16) n
    C1 N1 . 1.4145(15) y
    C2 C3 . 1.3849(16) n
    C2 C14 . 1.4927(17) y
    C3 C4 . 1.3852(17) n
    C3 H3 . 0.95 n
    C4 C5 . 1.3803(17) n
    C4 H4 . 0.95 n
    C5 C6 . 1.3844(18) n
    C5 H5 . 0.95 n
    C6 H6 . 0.95 n
    C7 C12 . 1.3959(18) n
    C7 C8 . 1.4099(17) n
    C7 C13 . 1.4708(17) y
    C8 C9 . 1.3956(18) n
    C8 C15 . 1.5046(19) y
    C9 C10 . 1.380(2) n
    C9 H9 . 0.95 n
    C10 C11 . 1.386(2) n
    C10 H10 . 0.95 n
    C11 C12 . 1.3833(18) n
    C11 H11 . 0.95 n
    C12 H12 . 0.95 n
    C13 N1 . 1.2746(15) y
    C13 H13 . 0.95 n
    C14 F2 . 1.3374(15) y
    C14 F3 . 1.3410(15) y
    C14 F1 . 1.3456(14) y
    C15 H15A . 0.98 n
    C15 H15B . 0.98 n
    C15 H15C . 0.98 n
loop_
    _geom_angle_atom_site_label_1
    _geom_angle_atom_site_label_2
    _geom_angle_atom_site_label_3
    _geom_angle_site_symmetry_1
    _geom_angle_site_symmetry_3
    _geom_angle
    _geom_angle_publ_flag
    C6 C1 C2 . . 118.25(10) n
    C6 C1 N1 . . 122.55(10) n
    C2 C1 N1 . . 119.16(10) n
    C3 C2 C1 . . 120.13(10) n
    C3 C2 C14 . . 119.88(10) n
    C1 C2 C14 . . 119.99(10) n
    C2 C3 C4 . . 120.55(11) n
    C2 C3 H3 . . 120 n
    C4 C3 H3 . . 120 n
    C5 C4 C3 . . 119.74(11) n
    C5 C4 H4 . . 120 n
    C3 C4 H4 . . 120 n
    C4 C5 C6 . . 120.17(11) n
    C4 C5 H5 . . 120 n
    C6 C5 H5 . . 120 n
    C5 C6 C1 . . 121.09(11) n
    C5 C6 H6 . . 120 n
    C1 C6 H6 . . 120 n
    C12 C7 C8 . . 120.00(11) n
    C12 C7 C13 . . 119.81(11) n
    C8 C7 C13 . . 120.18(11) n
    C9 C8 C7 . . 117.65(12) n
    C9 C8 C15 . . 119.79(11) n
    C7 C8 C15 . . 122.56(12) n
    C10 C9 C8 . . 121.87(12) n
    C10 C9 H9 . . 119 n
    C8 C9 H9 . . 119 n
    C9 C10 C11 . . 120.12(12) n
    C9 C10 H10 . . 120 n
    C11 C10 H10 . . 120 n
    C12 C11 C10 . . 119.32(13) n
    C12 C11 H11 . . 120 n
    C10 C11 H11 . . 120 n
    C11 C12 C7 . . 120.96(12) n
    C11 C12 H12 . . 120 n
    C7 C12 H12 . . 120 n
    N1 C13 C7 . . 122.18(11) y
    N1 C13 H13 . . 119 n
    C7 C13 H13 . . 119 n
    F2 C14 F3 . . 106.48(10) y
    F2 C14 F1 . . 105.75(10) y
    F3 C14 F1 . . 105.61(10) y
    F2 C14 C2 . . 113.59(10) y
    F3 C14 C2 . . 112.49(10) y
    F1 C14 C2 . . 112.31(10) y
    C8 C15 H15A . . 110 n
    C8 C15 H15B . . 110 n
    H15A C15 H15B . . 110 n
    C8 C15 H15C . . 110 n
    H15A C15 H15C . . 110 n
    H15B C15 H15C . . 110 n
    C13 N1 C1 . . 117.59(10) y
loop_
    _geom_torsion_atom_site_label_1
    _geom_torsion_atom_site_label_2
    _geom_torsion_atom_site_label_3
    _geom_torsion_atom_site_label_4
    _geom_torsion_site_symmetry_1
    _geom_torsion_site_symmetry_2
    _geom_torsion_site_symmetry_3
    _geom_torsion_site_symmetry_4
    _geom_torsion
    _geom_torsion_publ_flag
    C6 C1 C2 C3 . . . . -3.20(16) n
    N1 C1 C2 C3 . . . . 178.92(10) n
    C6 C1 C2 C14 . . . . 176.74(11) n
    N1 C1 C2 C14 . . . . -1.15(16) n
    C1 C2 C3 C4 . . . . 1.92(17) n
    C14 C2 C3 C4 . . . . -178.02(11) n
    C2 C3 C4 C5 . . . . 0.39(18) n
    C3 C4 C5 C6 . . . . -1.36(18) n
    C4 C5 C6 C1 . . . . 0.01(18) n
    C2 C1 C6 C5 . . . . 2.25(17) n
    N1 C1 C6 C5 . . . . -179.94(11) n
    C12 C7 C8 C9 . . . . -3.49(17) n
    C13 C7 C8 C9 . . . . 175.13(11) n
    C12 C7 C8 C15 . . . . 175.96(12) n
    C13 C7 C8 C15 . . . . -5.42(17) n
    C7 C8 C9 C10 . . . . 2.03(18) n
    C15 C8 C9 C10 . . . . -177.44(12) n
    C8 C9 C10 C11 . . . . 0.8(2) n
    C9 C10 C11 C12 . . . . -2.19(19) n
    C10 C11 C12 C7 . . . . 0.69(19) n
    C8 C7 C12 C11 . . . . 2.20(18) n
    C13 C7 C12 C11 . . . . -176.42(11) n
    C12 C7 C13 N1 . . . . 10.36(17) y
    C8 C7 C13 N1 . . . . -168.26(11) n
    C3 C2 C14 F2 . . . . -122.68(12) n
    C1 C2 C14 F2 . . . . 57.39(15) n
    C3 C2 C14 F3 . . . . 116.27(12) n
    C1 C2 C14 F3 . . . . -63.66(14) n
    C3 C2 C14 F1 . . . . -2.72(16) n
    C1 C2 C14 F1 . . . . 177.34(10) n
    C7 C13 N1 C1 . . . . -178.37(10) y
    C6 C1 N1 C13 . . . . 45.47(16) y
    C2 C1 N1 C13 . . . . -136.73(11) n
data_V
_audit_creation_method     SHELXL-97
_journal_date_recd_electronic     2007-01-04
_journal_date_accepted     2007-04-11
_journal_name_full     'Acta Crystallographica, Section B'
_journal_year     2007
_journal_volume     63
_journal_issue      3
_journal_page_first     485
_journal_page_last     496
_journal_paper_category     FA
_journal_coeditor_code     GP5015
_chemical_name_systematic
;
 N-(2-bromobenzylidene)-2-methylaniline
;
_chemical_name_common     ?
_chemical_formula_moiety     'C14 H12 Br N'
_chemical_formula_sum     'C14 H12 Br N'
_chemical_formula_weight     274.16
_chemical_melting_point       .78E-78
_symmetry_cell_setting     orthorhombic
_symmetry_space_group_name_H-M     'P b c n'
loop_
    _symmetry_equiv_pos_as_xyz
    'x, y, z'
    '-x+1/2, -y+1/2, z+1/2'
    '-x, y, -z+1/2'
    'x+1/2, -y+1/2, -z'
    '-x, -y, -z'
    'x-1/2, y-1/2, -z-1/2'
    'x, -y, z-1/2'
    '-x-1/2, y-1/2, z'
_cell_length_a     13.4669(10)
_cell_length_b     11.7471(9)
_cell_length_c     14.9271(11)
_cell_angle_alpha     90.00
_cell_angle_beta     90.00
_cell_angle_gamma     90.00
_cell_volume     2361.4(3)
_cell_formula_units_Z     8
_cell_measurement_reflns_used     3317
_cell_measurement_theta_min     2.301
_cell_measurement_theta_max     25.044
_cell_measurement_temperature     173(2)
_exptl_crystal_description     prism
_exptl_crystal_colour     yellow
_exptl_crystal_size_max     0.50
_exptl_crystal_size_mid     0.50
_exptl_crystal_size_min     0.08
_exptl_crystal_density_diffrn     1.542
_exptl_crystal_density_meas     ?
_exptl_crystal_density_method     'not measured'
_exptl_crystal_F_000     1104
_exptl_absorpt_coefficient_mu     3.452
_exptl_absorpt_correction_type     multi-scan
_exptl_absorpt_process_details     'SADABS (Blessing, 1995)'
_exptl_absorpt_correction_T_min     0.194
_exptl_absorpt_correction_T_max     0.756
_exptl_special_details
;
 ?
;
_diffrn_ambient_temperature     173(2)
_diffrn_radiation_type     MoK\a
_diffrn_radiation_wavelength     0.71073
_diffrn_radiation_source     'normal-focus sealed tube'
_diffrn_radiation_monochromator     graphite
_diffrn_measurement_device_type     'Siemens SMART Platform CCD'
_diffrn_measurement_method     'area detector, omega scans per phi'
_diffrn_detector_area_resol_mean     ?
_diffrn_reflns_number     21446
_diffrn_reflns_av_R_equivalents     0.0344
_diffrn_reflns_av_sigmaI/netI     0.0161
_diffrn_reflns_theta_min     2.30
_diffrn_reflns_theta_max     25.05
_diffrn_reflns_theta_full     25.05
_diffrn_measured_fraction_theta_max     0.999
_diffrn_measured_fraction_theta_full     0.999
_diffrn_reflns_limit_h_min     -16
_diffrn_reflns_limit_h_max     16
_diffrn_reflns_limit_k_min     -13
_diffrn_reflns_limit_k_max     13
_diffrn_reflns_limit_l_min     -17
_diffrn_reflns_limit_l_max     17
_diffrn_standards_number     ?
_diffrn_standards_interval_count     ?
_diffrn_standards_interval_time     ?
_diffrn_standards_decay_%     ?
_refine_special_details
;
 Refinement of F^2^ against ALL reflections.  The weighted R-factor wR and
 goodness of fit S are based on F^2^, conventional R-factors R are based
 on F, with F set to zero for negative F^2^. The threshold expression of
 F^2^ > 2sigma(F^2^) is used only for calculating R-factors(gt) etc. and is
 not relevant to the choice of reflections for refinement.  R-factors based
 on F^2^ are statistically about twice as large as those based on F, and R-
 factors based on ALL data will be even larger.
;
_reflns_number_total     2088
_reflns_number_gt     1788
_reflns_threshold_expression     'I>2\s(I)'
_refine_ls_structure_factor_coef     Fsqd
_refine_ls_matrix_type     full
_refine_ls_R_factor_all     0.0345
_refine_ls_R_factor_gt     0.0273
_refine_ls_wR_factor_gt     0.0600
_refine_ls_wR_factor_ref     0.0625
_refine_ls_goodness_of_fit_ref     1.102
_refine_ls_restrained_S_all     1.096
_refine_ls_number_reflns     2088
_refine_ls_number_parameters     196
_refine_ls_number_restraints     45
_refine_ls_hydrogen_treatment     constr
_refine_ls_weighting_scheme     calc
_refine_ls_weighting_details
         'calc w=1/[\s^2^(Fo^2^)+(0.0232P)^2^+1.5024P] where P=(Fo^2^+2Fc^2^)/3'
_atom_sites_solution_hydrogens     geom
_atom_sites_solution_primary     direct
_atom_sites_solution_secondary     difmap
_refine_ls_shift/su_max     0.001
_refine_ls_shift/su_mean     0.000
_refine_diff_density_max     0.262
_refine_diff_density_min     -0.219
_refine_ls_extinction_method     none
_refine_ls_extinction_coef     ?
loop_
    _atom_type_symbol
    _atom_type_description
    _atom_type_scat_dispersion_real
    _atom_type_scat_dispersion_imag
    _atom_type_scat_source
    'C' 'C' 0.0033 0.0016
                         'International Tables Vol C Tables 4.2.6.8 and 6.1.1.4'
    'H' 'H' 0.0000 0.0000
                         'International Tables Vol C Tables 4.2.6.8 and 6.1.1.4'
    'N' 'N' 0.0061 0.0033
                         'International Tables Vol C Tables 4.2.6.8 and 6.1.1.4'
    'Br' 'Br' -0.2901 2.4595
                         'International Tables Vol C Tables 4.2.6.8 and 6.1.1.4'
_computing_data_collection     'SMART, Bruker'
_computing_cell_refinement     'SAINT, Bruker'
_computing_data_reduction     'SAINT, Bruker'
_computing_structure_solution     'SHELXS-97 (Sheldrick, 1990)'
_computing_structure_refinement     'SHELXL-97 (Sheldrick, 1997)'
_computing_molecular_graphics     'PLATON (Spek, 2003)'
_computing_publication_material     'SHELXL97 (Sheldrick, 1997)'
loop_
    _atom_site_type_symbol
    _atom_site_label
    _atom_site_fract_x
    _atom_site_fract_y
    _atom_site_fract_z
    _atom_site_U_iso_or_equiv
    _atom_site_adp_type
    _atom_site_calc_flag
    _atom_site_refinement_flags
    _atom_site_occupancy
    _atom_site_disorder_assembly
    _atom_site_disorder_group
    Br Br1 0.09885(3) 0.54056(5) 0.68020(4) 0.03447(13) Uani d PD 0.6457(7) A 1
    C C1 0.2856(4) 0.4965(7) 0.5924(6) 0.0238(5) Uani d PD 0.6457(7) A 1
    C C2 0.2344(5) 0.5690(13) 0.6514(10) 0.0243(9) Uani d PD 0.6457(7) A 1
    C C3 0.2801(7) 0.6593(15) 0.6941(11) 0.0273(17) Uani d PD 0.6457(7) A 1
    H H3 0.2435 0.7075 0.7331 0.033 Uiso calc PR 0.6457(7) A 1
    C C4 0.3799(10) 0.678(2) 0.6790(16) 0.0321(12) Uani d PD 0.6457(7) A 1
    H H4 0.4120 0.7409 0.7065 0.039 Uiso calc PR 0.6457(7) A 1
    C C5 0.4340(7) 0.6049(13) 0.6237(12) 0.030(2) Uani d PD 0.6457(7) A 1
    H H5 0.5034 0.6161 0.6158 0.036 Uiso calc PR 0.6457(7) A 1
    C C6 0.3869(5) 0.5164(10) 0.5803(8) 0.0246(18) Uani d PD 0.6457(7) A 1
    H H6 0.4239 0.4682 0.5416 0.030 Uiso calc PR 0.6457(7) A 1
    C C7 0.2278(3) 0.2648(5) 0.4331(4) 0.0195(12) Uani d PD 0.6457(7) A 1
    C C8 0.2787(3) 0.1686(8) 0.4042(8) 0.0222(14) Uani d PD 0.6457(7) A 1
    C C9 0.2269(4) 0.0894(9) 0.3519(10) 0.0266(16) Uani d PD 0.6457(7) A 1
    H H9 0.2609 0.0239 0.3305 0.032 Uiso calc PR 0.6457(7) A 1
    C C10 0.1277(9) 0.1037(19) 0.3303(18) 0.0342(16) Uani d PD 0.6457(7) A 1
    H H10 0.0938 0.0473 0.2965 0.041 Uiso calc PR 0.6457(7) A 1
    C C11 0.0783(6) 0.2005(14) 0.3581(12) 0.032(2) Uani d PD 0.6457(7) A 1
    H H11 0.0107 0.2121 0.3424 0.038 Uiso calc PR 0.6457(7) A 1
    C C12 0.1284(4) 0.2803(7) 0.4091(5) 0.0267(16) Uani d PD 0.6457(7) A 1
    H H12 0.0946 0.3470 0.4282 0.032 Uiso calc PR 0.6457(7) A 1
    C C13 0.2373(5) 0.4000(5) 0.5460(5) 0.0234(12) Uani d PD 0.6457(7) A 1
    H H13 0.1725 0.3770 0.5635 0.028 Uiso calc PR 0.6457(7) A 1
    C C14 0.3857(3) 0.1474(6) 0.4285(6) 0.050 Uiso d PD 0.6457(7) A 1
    H H14A 0.4286 0.1721 0.3791 0.075 Uiso calc PR 0.6457(7) A 1
    H H14B 0.3958 0.0659 0.4394 0.075 Uiso calc PR 0.6457(7) A 1
    H H14C 0.4025 0.1903 0.4827 0.075 Uiso calc PR 0.6457(7) A 1
    N N1 0.2813(3) 0.3475(3) 0.48306(19) 0.0244(9) Uani d PD 0.6457(7) A 1
    Br Br1A 0.40214(6) 0.13289(7) 0.42988(8) 0.0342(2) Uani d PD 0.3543(7) A 2
    C C1A 0.2171(5) 0.2541(10) 0.4506(9) 0.0195(12) Uani d PD 0.3543(7) A 2
    C C2A 0.2639(5) 0.1590(15) 0.4121(16) 0.0222(14) Uani d PD 0.3543(7) A 2
    C C3A 0.2134(7) 0.0816(18) 0.3594(19) 0.0266(16) Uani d PD 0.3543(7) A 2
    H H3A 0.2445 0.0133 0.3402 0.032 Uiso calc PR 0.3543(7) A 2
    C C4A 0.1167(17) 0.106(3) 0.335(3) 0.0342(16) Uani d PD 0.3543(7) A 2
    H H4A 0.0830 0.0578 0.2940 0.041 Uiso calc PR 0.3543(7) A 2
    C C5A 0.0681(11) 0.201(3) 0.371(2) 0.032(2) Uani d PD 0.3543(7) A 2
    H H5A 0.0005 0.2146 0.3565 0.038 Uiso calc PR 0.3543(7) A 2
    C C6A 0.1181(7) 0.2736(14) 0.4275(12) 0.0267(16) Uani d PD 0.3543(7) A 2
    H H6A 0.0848 0.3383 0.4510 0.032 Uiso calc PR 0.3543(7) A 2
    C C7A 0.2794(6) 0.5023(12) 0.5926(11) 0.0238(5) Uani d PD 0.3543(7) A 2
    C C8A 0.2260(9) 0.563(2) 0.6568(19) 0.0243(9) Uani d PD 0.3543(7) A 2
    C C9A 0.2751(12) 0.650(3) 0.703(2) 0.0273(17) Uani d PD 0.3543(7) A 2
    H H9A 0.2396 0.6920 0.7469 0.033 Uiso calc PR 0.3543(7) A 2
    C C10A 0.3737(18) 0.676(4) 0.687(3) 0.0321(12) Uani d PD 0.3543(7) A 2
    H H10A 0.4059 0.7334 0.7211 0.039 Uiso calc PR 0.3543(7) A 2
    C C11A 0.4248(13) 0.619(3) 0.621(2) 0.030(2) Uani d PD 0.3543(7) A 2
    H H11A 0.4915 0.6388 0.6069 0.036 Uiso calc PR 0.3543(7) A 2
    C C12A 0.3779(9) 0.532(2) 0.5744(16) 0.0246(18) Uani d PD 0.3543(7) A 2
    H H12A 0.4133 0.4918 0.5294 0.030 Uiso calc PR 0.3543(7) A 2
    C C13A 0.2696(7) 0.3358(8) 0.5093(6) 0.0244(9) Uani d PD 0.3543(7) A 2
    H H13A 0.3364 0.3216 0.5262 0.029 Uiso calc PR 0.3543(7) A 2
    C C14A 0.1168(5) 0.5428(12) 0.6722(9) 0.050 Uiso d PD 0.3543(7) A 2
    H H14D 0.1074 0.4701 0.7032 0.075 Uiso calc PR 0.3543(7) A 2
    H H14E 0.0822 0.5408 0.6145 0.075 Uiso calc PR 0.3543(7) A 2
    H H14F 0.0898 0.6046 0.7090 0.075 Uiso calc PR 0.3543(7) A 2
    N N1A 0.2260(7) 0.4250(8) 0.5373(9) 0.0234(12) Uani d PD 0.3543(7) A 2
loop_
    _atom_site_aniso_label
    _atom_site_aniso_U_11
    _atom_site_aniso_U_22
    _atom_site_aniso_U_33
    _atom_site_aniso_U_12
    _atom_site_aniso_U_13
    _atom_site_aniso_U_23
    Br1 0.02272(19) 0.0463(2) 0.0344(2) 0.00246(18) 0.00429(16) -0.00775(17)
    C1 0.0287(11) 0.0218(12) 0.0208(9) -0.0006(10) 0.0006(9) 0.0012(8)
    C2 0.0273(14) 0.0241(18) 0.0214(18) -0.0001(12) 0.0025(12) 0.0047(17)
    C3 0.0397(15) 0.023(3) 0.020(3) 0.0027(10) 0.0005(10) 0.000(3)
    C4 0.040(2) 0.0257(13) 0.030(4) -0.0068(16) -0.0067(13) -0.001(3)
    C5 0.0257(18) 0.026(4) 0.0371(17) -0.003(3) -0.002(2) 0.006(3)
    C6 0.0263(15) 0.019(3) 0.0282(19) 0.002(2) 0.0035(17) 0.002(2)
    C7 0.0286(13) 0.0192(14) 0.011(3) -0.0055(12) 0.0082(14) 0.0061(17)
    C8 0.0267(15) 0.0216(17) 0.018(2) -0.0052(18) 0.008(2) 0.0057(18)
    C9 0.0375(19) 0.0199(16) 0.022(3) -0.0064(18) 0.012(2) 0.0001(19)
    C10 0.043(3) 0.0320(14) 0.028(3) -0.010(2) -0.002(4) -0.0038(11)
    C11 0.0296(19) 0.0381(12) 0.028(5) -0.0030(18) -0.004(3) 0.003(2)
    C12 0.0312(15) 0.0268(14) 0.022(4) 0.0017(14) 0.0025(18) 0.002(2)
    C13 0.0264(16) 0.020(3) 0.0241(18) -0.0008(15) 0.0018(13) 0.004(2)
    N1 0.0289(14) 0.0214(12) 0.023(2) 0.0002(10) -0.0004(15) 0.0013(15)
    Br1A 0.0274(4) 0.0299(4) 0.0454(4) 0.0031(3) 0.0012(3) -0.0044(3)
    C1A 0.0286(13) 0.0192(14) 0.011(3) -0.0055(12) 0.0082(14) 0.0061(17)
    C2A 0.0267(15) 0.0216(17) 0.018(2) -0.0052(18) 0.008(2) 0.0057(18)
    C3A 0.0375(19) 0.0199(16) 0.022(3) -0.0064(18) 0.012(2) 0.0001(19)
    C4A 0.043(3) 0.0320(14) 0.028(3) -0.010(2) -0.002(4) -0.0038(11)
    C5A 0.0296(19) 0.0381(12) 0.028(5) -0.0030(18) -0.004(3) 0.003(2)
    C6A 0.0312(15) 0.0268(14) 0.022(4) 0.0017(14) 0.0025(18) 0.002(2)
    C7A 0.0287(11) 0.0218(12) 0.0208(9) -0.0006(10) 0.0006(9) 0.0012(8)
    C8A 0.0273(14) 0.0241(18) 0.0214(18) -0.0001(12) 0.0025(12) 0.0047(17)
    C9A 0.0397(15) 0.023(3) 0.020(3) 0.0027(10) 0.0005(10) 0.000(3)
    C10A 0.040(2) 0.0257(13) 0.030(4) -0.0068(16) -0.0067(13) -0.001(3)
    C11A 0.0257(18) 0.026(4) 0.0371(17) -0.003(3) -0.002(2) 0.006(3)
    C12A 0.0263(15) 0.019(3) 0.0282(19) 0.002(2) 0.0035(17) 0.002(2)
    C13A 0.0289(14) 0.0214(12) 0.023(2) 0.0002(10) -0.0004(15) 0.0013(15)
    N1A 0.0264(16) 0.020(3) 0.0241(18) -0.0008(15) 0.0018(13) 0.004(2)
_geom_special_details
;
 All esds (except the esd in the dihedral angle between two l.s. planes)
 are estimated using the full covariance matrix.  The cell esds are taken
 into account individually in the estimation of esds in distances, angles
 and torsion angles; correlations between esds in cell parameters are only
 used when they are defined by crystal symmetry.  An approximate (isotropic)
 treatment of cell esds is used for estimating esds involving l.s. planes.
;
loop_
    _geom_bond_atom_site_label_1
    _geom_bond_atom_site_label_2
    _geom_bond_site_symmetry_2
    _geom_bond_distance
    _geom_bond_publ_flag
    Br1 C2 . 1.906(3) n
    C1 C6 . 1.396(6) n
    C1 C2 . 1.405(6) n
    C1 C13 . 1.479(6) n
    C2 C3 . 1.381(6) n
    C3 C4 . 1.381(8) n
    C3 H3 . 0.95 n
    C4 C5 . 1.397(12) n
    C4 H4 . 0.95 n
    C5 C6 . 1.379(7) n
    C5 H5 . 0.95 n
    C6 H6 . 0.95 n
    C7 C8 . 1.390(6) n
    C7 C12 . 1.398(6) n
    C7 N1 . 1.421(6) n
    C8 C9 . 1.401(6) n
    C8 C14 . 1.507(3) n
    C9 C10 . 1.385(7) n
    C9 H9 . 0.95 n
    C10 C11 . 1.381(10) n
    C10 H10 . 0.95 n
    C11 C12 . 1.384(7) n
    C11 H11 . 0.95 n
    C12 H12 . 0.95 n
    C13 N1 . 1.271(5) n
    C13 H13 . 0.95 n
    C14 H14A . 0.98 n
    C14 H14B . 0.98 n
    C14 H14C . 0.98 n
    Br1A C2A . 1.905(3) n
    C1A C6A . 1.396(6) n
    C1A C2A . 1.404(7) n
    C1A C13A . 1.480(6) n
    C2A C3A . 1.382(7) n
    C3A C4A . 1.381(8) n
    C3A H3A . 0.95 n
    C4A C5A . 1.397(12) n
    C4A H4A . 0.95 n
    C5A C6A . 1.379(7) n
    C5A H5A . 0.95 n
    C6A H6A . 0.95 n
    C7A C8A . 1.391(6) n
    C7A C12A . 1.399(6) n
    C7A N1A . 1.422(6) n
    C8A C9A . 1.400(6) n
    C8A C14A . 1.508(3) n
    C9A C10A . 1.385(8) n
    C9A H9A . 0.95 n
    C10A C11A . 1.381(10) n
    C10A H10A . 0.95 n
    C11A C12A . 1.384(8) n
    C11A H11A . 0.95 n
    C12A H12A . 0.95 n
    C13A N1A . 1.271(5) n
    C13A H13A . 0.95 n
    C14A H14D . 0.98 n
    C14A H14E . 0.98 n
    C14A H14F . 0.98 n
loop_
    _geom_angle_atom_site_label_1
    _geom_angle_atom_site_label_2
    _geom_angle_atom_site_label_3
    _geom_angle_site_symmetry_1
    _geom_angle_site_symmetry_3
    _geom_angle
    _geom_angle_publ_flag
    C6 C1 C2 . . 117.3(4) n
    C6 C1 C13 . . 119.8(4) n
    C2 C1 C13 . . 122.8(3) n
    C3 C2 C1 . . 122.4(3) n
    C3 C2 Br1 . . 117.2(4) n
    C1 C2 Br1 . . 120.3(4) n
    C4 C3 C2 . . 118.7(6) n
    C4 C3 H3 . . 121 n
    C2 C3 H3 . . 121 n
    C3 C4 C5 . . 120.5(6) n
    C3 C4 H4 . . 120 n
    C5 C4 H4 . . 120 n
    C6 C5 C4 . . 120.0(5) n
    C6 C5 H5 . . 120 n
    C4 C5 H5 . . 120 n
    C5 C6 C1 . . 121.0(5) n
    C5 C6 H6 . . 120 n
    C1 C6 H6 . . 120 n
    C8 C7 C12 . . 119.9(4) n
    C8 C7 N1 . . 118.0(3) n
    C12 C7 N1 . . 122.0(4) n
    C7 C8 C9 . . 117.9(3) n
    C7 C8 C14 . . 122.1(4) n
    C9 C8 C14 . . 120.0(4) n
    C10 C9 C8 . . 122.0(5) n
    C10 C9 H9 . . 119 n
    C8 C9 H9 . . 119 n
    C11 C10 C9 . . 119.7(6) n
    C11 C10 H10 . . 120 n
    C9 C10 H10 . . 120 n
    C10 C11 C12 . . 119.2(5) n
    C10 C11 H11 . . 120 n
    C12 C11 H11 . . 120 n
    C11 C12 C7 . . 121.3(5) n
    C11 C12 H12 . . 119 n
    C7 C12 H12 . . 119 n
    N1 C13 C1 . . 120.8(5) n
    N1 C13 H13 . . 120 n
    C1 C13 H13 . . 120 n
    C13 N1 C7 . . 118.9(3) n
    C6A C1A C2A . . 117.3(5) n
    C6A C1A C13A . . 119.7(5) n
    C2A C1A C13A . . 123.0(4) n
    C3A C2A C1A . . 122.3(4) n
    C3A C2A Br1A . . 117.0(4) n
    C1A C2A Br1A . . 120.6(4) n
    C4A C3A C2A . . 118.6(7) n
    C4A C3A H3A . . 121 n
    C2A C3A H3A . . 121 n
    C3A C4A C5A . . 120.4(7) n
    C3A C4A H4A . . 120 n
    C5A C4A H4A . . 120 n
    C6A C5A C4A . . 120.0(6) n
    C6A C5A H5A . . 120 n
    C4A C5A H5A . . 120 n
    C5A C6A C1A . . 121.0(6) n
    C5A C6A H6A . . 120 n
    C1A C6A H6A . . 120 n
    C8A C7A C12A . . 119.8(5) n
    C8A C7A N1A . . 117.6(4) n
    C12A C7A N1A . . 121.7(5) n
    C7A C8A C9A . . 118.0(4) n
    C7A C8A C14A . . 122.0(5) n
    C9A C8A C14A . . 119.9(5) n
    C10A C9A C8A . . 122.0(6) n
    C10A C9A H9A . . 119 n
    C8A C9A H9A . . 119 n
    C11A C10A C9A . . 119.6(7) n
    C11A C10A H10A . . 120 n
    C9A C10A H10A . . 120 n
    C10A C11A C12A . . 119.2(6) n
    C10A C11A H11A . . 120 n
    C12A C11A H11A . . 120 n
    C11A C12A C7A . . 121.4(6) n
    C11A C12A H12A . . 119 n
    C7A C12A H12A . . 119 n
    N1A C13A C1A . . 120.6(5) n
    N1A C13A H13A . . 120 n
    C1A C13A H13A . . 120 n
    C8A C14A H14D . . 110 n
    C8A C14A H14E . . 110 n
    H14D C14A H14E . . 110 n
    C8A C14A H14F . . 110 n
    H14D C14A H14F . . 110 n
    H14E C14A H14F . . 110 n
    C13A N1A C7A . . 118.9(4) n
loop_
    _geom_torsion_atom_site_label_1
    _geom_torsion_atom_site_label_2
    _geom_torsion_atom_site_label_3
    _geom_torsion_atom_site_label_4
    _geom_torsion_site_symmetry_1
    _geom_torsion_site_symmetry_2
    _geom_torsion_site_symmetry_3
    _geom_torsion_site_symmetry_4
    _geom_torsion
    _geom_torsion_publ_flag
    C6 C1 C2 C3 . . . . 2(2) n
    C13 C1 C2 C3 . . . . -179.7(15) n
    C6 C1 C2 Br1 . . . . -174.5(13) n
    C13 C1 C2 Br1 . . . . 3.6(19) n
    C1 C2 C3 C4 . . . . -1(3) n
    Br1 C2 C3 C4 . . . . 176(2) n
    C2 C3 C4 C5 . . . . -2(4) n
    C3 C4 C5 C6 . . . . 3(4) n
    C4 C5 C6 C1 . . . . -2(3) n
    C2 C1 C6 C5 . . . . -1(2) n
    C13 C1 C6 C5 . . . . -179.2(14) n
    C12 C7 C8 C9 . . . . -0.5(14) n
    N1 C7 C8 C9 . . . . -177.4(9) n
    C12 C7 C8 C14 . . . . -179.7(9) n
    N1 C7 C8 C14 . . . . 3.4(14) n
    C7 C8 C9 C10 . . . . -1(2) n
    C14 C8 C9 C10 . . . . 178(2) n
    C8 C9 C10 C11 . . . . 2(3) n
    C9 C10 C11 C12 . . . . -2(4) n
    C10 C11 C12 C7 . . . . 0(3) n
    C8 C7 C12 C11 . . . . 1.2(16) n
    N1 C7 C12 C11 . . . . 178.0(12) n
    C6 C1 C13 N1 . . . . -12.9(10) n
    C2 C1 C13 N1 . . . . 169.0(11) n
    C1 C13 N1 C7 . . . . -172.4(4) n
    C8 C7 N1 C13 . . . . -144.2(8) n
    C12 C7 N1 C13 . . . . 38.9(9) n
    C6A C1A C2A C3A . . . . -5(3) n
    C13A C1A C2A C3A . . . . 178(2) n
    C6A C1A C2A Br1A . . . . 173.9(16) n
    C13A C1A C2A Br1A . . . . -3(3) n
    C1A C2A C3A C4A . . . . 8(4) n
    Br1A C2A C3A C4A . . . . -171(3) n
    C2A C3A C4A C5A . . . . -7(6) n
    C3A C4A C5A C6A . . . . 3(7) n
    C4A C5A C6A C1A . . . . -1(6) n
    C2A C1A C6A C5A . . . . 2(4) n
    C13A C1A C6A C5A . . . . 178(3) n
    C12A C7A C8A C9A . . . . -2(4) n
    N1A C7A C8A C9A . . . . -172(3) n
    C12A C7A C8A C14A . . . . 173(3) n
    N1A C7A C8A C14A . . . . 4(4) n
    C7A C8A C9A C10A . . . . 0(6) n
    C14A C8A C9A C10A . . . . -176(4) n
    C8A C9A C10A C11A . . . . 3(8) n
    C9A C10A C11A C12A . . . . -3(8) n
    C10A C11A C12A C7A . . . . 1(6) n
    C8A C7A C12A C11A . . . . 2(4) n
    N1A C7A C12A C11A . . . . 171(3) n
    C6A C1A C13A N1A . . . . -2(2) n
    C2A C1A C13A N1A . . . . 174.9(18) n
    C1A C13A N1A C7A . . . . -179.1(10) n
    C8A C7A N1A C13A . . . . -148(2) n
    C12A C7A N1A C13A . . . . 42(2) n
data_VI
_audit_creation_method     SHELXL-97
_journal_date_recd_electronic     2007-01-04
_journal_date_accepted     2007-04-11
_journal_name_full     'Acta Crystallographica, Section B'
_journal_year     2007
_journal_volume     63
_journal_issue      3
_journal_page_first     485
_journal_page_last     496
_journal_paper_category     FA
_journal_coeditor_code     GP5015
_chemical_name_systematic
;
 N-(2-methylbenzylidene)-2-bromoaniline
;
_chemical_name_common     ?
_chemical_formula_moiety     'C14 H12 Br N'
_chemical_formula_sum     'C14 H12 Br N'
_chemical_formula_weight     274.16
_chemical_melting_point       .79E-80
_symmetry_cell_setting     orthorhombic
_symmetry_space_group_name_H-M     'P b c n'
loop_
    _symmetry_equiv_pos_as_xyz
    'x, y, z'
    '-x+1/2, -y+1/2, z+1/2'
    '-x, y, -z+1/2'
    'x+1/2, -y+1/2, -z'
    '-x, -y, -z'
    'x-1/2, y-1/2, -z-1/2'
    'x, -y, z-1/2'
    '-x-1/2, y-1/2, z'
_cell_length_a     13.3550(12)
_cell_length_b     11.6667(11)
_cell_length_c     14.9529(14)
_cell_angle_alpha     90.00
_cell_angle_beta     90.00
_cell_angle_gamma     90.00
_cell_volume     2329.8(4)
_cell_formula_units_Z     8
_cell_measurement_reflns_used     3828
_cell_measurement_theta_min     2.318
_cell_measurement_theta_max     25.004
_cell_measurement_temperature     173(2)
_exptl_crystal_description     prism
_exptl_crystal_colour     yellow
_exptl_crystal_size_max     0.45
_exptl_crystal_size_mid     0.30
_exptl_crystal_size_min     0.15
_exptl_crystal_density_diffrn     1.563
_exptl_crystal_density_meas     ?
_exptl_crystal_density_method     'not measured'
_exptl_crystal_F_000     1104
_exptl_absorpt_coefficient_mu     3.498
_exptl_absorpt_correction_type     multi-scan
_exptl_absorpt_process_details     'SADABS (Blessing, 1995)'
_exptl_absorpt_correction_T_min     0.293
_exptl_absorpt_correction_T_max     0.589
_exptl_special_details
;
 ?
;
_diffrn_ambient_temperature     173(2)
_diffrn_radiation_type     MoK\a
_diffrn_radiation_wavelength     0.71073
_diffrn_radiation_source     'normal-focus sealed tube'
_diffrn_radiation_monochromator     graphite
_diffrn_measurement_device_type     'Siemens SMART Platform CCD'
_diffrn_measurement_method     'area detector, omega scans per phi'
_diffrn_detector_area_resol_mean     ?
_diffrn_reflns_number     21202
_diffrn_reflns_av_R_equivalents     0.0308
_diffrn_reflns_av_sigmaI/netI     0.0143
_diffrn_reflns_theta_min     2.32
_diffrn_reflns_theta_max     25.03
_diffrn_reflns_theta_full     25.03
_diffrn_measured_fraction_theta_max     1.000
_diffrn_measured_fraction_theta_full     1.000
_diffrn_reflns_limit_h_min     -15
_diffrn_reflns_limit_h_max     15
_diffrn_reflns_limit_k_min     -13
_diffrn_reflns_limit_k_max     13
_diffrn_reflns_limit_l_min     -17
_diffrn_reflns_limit_l_max     17
_diffrn_standards_number     ?
_diffrn_standards_interval_count     ?
_diffrn_standards_interval_time     ?
_diffrn_standards_decay_%     ?
_refine_special_details
;
 Refinement of F^2^ against ALL reflections.  The weighted R-factor wR and
 goodness of fit S are based on F^2^, conventional R-factors R are based
 on F, with F set to zero for negative F^2^. The threshold expression of
 F^2^ > 2sigma(F^2^) is used only for calculating R-factors(gt) etc. and is
 not relevant to the choice of reflections for refinement.  R-factors based
 on F^2^ are statistically about twice as large as those based on F, and R-
 factors based on ALL data will be even larger.
;
_reflns_number_total     2059
_reflns_number_gt     1865
_reflns_threshold_expression     'I>2\s(I)'
_refine_ls_structure_factor_coef     Fsqd
_refine_ls_matrix_type     full
_refine_ls_R_factor_all     0.0345
_refine_ls_R_factor_gt     0.0292
_refine_ls_wR_factor_gt     0.0653
_refine_ls_wR_factor_ref     0.0673
_refine_ls_goodness_of_fit_ref     1.129
_refine_ls_restrained_S_all     1.129
_refine_ls_number_reflns     2059
_refine_ls_number_parameters     146
_refine_ls_number_restraints     0
_refine_ls_hydrogen_treatment     constr
_refine_ls_weighting_scheme     calc
_refine_ls_weighting_details
         'calc w=1/[\s^2^(Fo^2^)+(0.0269P)^2^+2.7709P] where P=(Fo^2^+2Fc^2^)/3'
_atom_sites_solution_hydrogens     geom
_atom_sites_solution_primary     direct
_atom_sites_solution_secondary     difmap
_refine_ls_shift/su_max     0.001
_refine_ls_shift/su_mean     0.000
_refine_diff_density_max     0.377
_refine_diff_density_min     -0.346
_refine_ls_extinction_method     none
_refine_ls_extinction_coef     ?
loop_
    _atom_type_symbol
    _atom_type_description
    _atom_type_scat_dispersion_real
    _atom_type_scat_dispersion_imag
    _atom_type_scat_source
    'C' 'C' 0.0033 0.0016
                         'International Tables Vol C Tables 4.2.6.8 and 6.1.1.4'
    'H' 'H' 0.0000 0.0000
                         'International Tables Vol C Tables 4.2.6.8 and 6.1.1.4'
    'N' 'N' 0.0061 0.0033
                         'International Tables Vol C Tables 4.2.6.8 and 6.1.1.4'
    'Br' 'Br' -0.2901 2.4595
                         'International Tables Vol C Tables 4.2.6.8 and 6.1.1.4'
_computing_data_collection     'SMART, Bruker'
_computing_cell_refinement     'SAINT, Bruker'
_computing_data_reduction     'SAINT, Bruker'
_computing_structure_solution     'SHELXS-97 (Sheldrick, 1990)'
_computing_structure_refinement     'SHELXL-97 (Sheldrick, 1997)'
_computing_molecular_graphics     'PLATON (Spek, 2003)'
_computing_publication_material     'SHELXL97 (Sheldrick, 1997)'
loop_
    _atom_site_type_symbol
    _atom_site_label
    _atom_site_fract_x
    _atom_site_fract_y
    _atom_site_fract_z
    _atom_site_U_iso_or_equiv
    _atom_site_adp_type
    _atom_site_calc_flag
    _atom_site_refinement_flags
    _atom_site_occupancy
    _atom_site_disorder_assembly
    _atom_site_disorder_group
    Br Br1 0.403961(19) 0.13753(2) 0.436421(19) 0.03074(11) Uani d . 1 . .
    C C1 0.22137(18) 0.2653(2) 0.43832(15) 0.0205(5) Uani d . 1 . .
    C C2 0.26762(18) 0.1651(2) 0.40779(16) 0.0204(5) Uani d . 1 . .
    C C3 0.2174(2) 0.0840(2) 0.35753(16) 0.0248(6) Uani d . 1 . .
    H H3 0.2505 0.0160 0.3388 0.030 Uiso calc R 1 . .
    C C4 0.1181(2) 0.1031(2) 0.33470(18) 0.0280(6) Uani d . 1 . .
    H H4 0.0829 0.0482 0.2997 0.034 Uiso calc R 1 . .
    C C5 0.0702(2) 0.2017(2) 0.36277(18) 0.0286(6) Uani d . 1 . .
    H H5 0.0022 0.2145 0.3472 0.034 Uiso calc R 1 . .
    C C6 0.12122(19) 0.2820(2) 0.41361(17) 0.0242(6) Uani d . 1 . .
    H H6 0.0876 0.3498 0.4321 0.029 Uiso calc R 1 . .
    C C7 0.28321(18) 0.4964(2) 0.59680(16) 0.0196(5) Uani d . 1 . .
    C C8 0.23004(19) 0.5637(2) 0.65885(15) 0.0216(5) Uani d . 1 . .
    C C9 0.2798(2) 0.6546(2) 0.69962(17) 0.0261(6) Uani d . 1 . .
    H H9 0.2447 0.7019 0.7408 0.031 Uiso calc R 1 . .
    C C10 0.3793(2) 0.6774(2) 0.68137(18) 0.0292(6) Uani d . 1 . .
    H H10 0.4119 0.7394 0.7105 0.035 Uiso calc R 1 . .
    C C11 0.4320(2) 0.6107(2) 0.62096(18) 0.0272(6) Uani d . 1 . .
    H H11 0.5004 0.6264 0.6086 0.033 Uiso calc R 1 . .
    C C12 0.38379(18) 0.5211(2) 0.57910(16) 0.0234(6) Uani d . 1 . .
    H H12 0.4195 0.4753 0.5374 0.028 Uiso calc R 1 . .
    C C13 0.23428(18) 0.4020(2) 0.54873(15) 0.0206(5) Uani d . 1 . .
    H H13 0.1682 0.3807 0.5654 0.025 Uiso calc R 1 . .
    C C14 0.11913(18) 0.5398(2) 0.68217(17) 0.0246(6) Uani d . 1 . .
    H H14A 0.0959 0.5960 0.7263 0.037 Uiso calc R 1 . .
    H H14B 0.1129 0.4624 0.7071 0.037 Uiso calc R 1 . .
    H H14C 0.0783 0.5457 0.6279 0.037 Uiso calc R 1 . .
    N N1 0.27694(15) 0.34772(17) 0.48573(13) 0.0217(5) Uani d . 1 . .
loop_
    _atom_site_aniso_label
    _atom_site_aniso_U_11
    _atom_site_aniso_U_22
    _atom_site_aniso_U_33
    _atom_site_aniso_U_12
    _atom_site_aniso_U_13
    _atom_site_aniso_U_23
    Br1 0.02397(16) 0.02797(16) 0.04027(18) 0.00210(11) 0.00054(12) -0.00165(12)
    C1 0.0245(13) 0.0204(12) 0.0166(11) -0.0029(10) 0.0022(10) 0.0015(10)
    C2 0.0205(13) 0.0223(13) 0.0184(12) -0.0016(10) 0.0013(10) 0.0027(10)
    C3 0.0356(15) 0.0187(12) 0.0202(13) -0.0032(11) 0.0037(11) -0.0006(11)
    C4 0.0345(15) 0.0255(14) 0.0241(14) -0.0092(12) -0.0048(11) -0.0005(11)
    C5 0.0252(14) 0.0342(16) 0.0264(14) -0.0032(12) -0.0050(11) 0.0013(12)
    C6 0.0260(13) 0.0237(13) 0.0229(13) 0.0018(11) 0.0022(10) 0.0007(11)
    C7 0.0240(13) 0.0189(12) 0.0160(11) 0.0001(10) -0.0018(10) 0.0018(10)
    C8 0.0274(14) 0.0211(12) 0.0163(12) 0.0018(10) -0.0013(10) 0.0023(10)
    C9 0.0353(15) 0.0219(13) 0.0211(13) 0.0044(11) -0.0013(11) -0.0035(11)
    C10 0.0382(16) 0.0208(13) 0.0285(14) -0.0046(11) -0.0097(12) 0.0001(12)
    C11 0.0244(13) 0.0241(14) 0.0331(15) -0.0043(11) -0.0032(11) 0.0030(11)
    C12 0.0232(13) 0.0234(14) 0.0236(14) 0.0000(10) 0.0031(10) 0.0007(11)
    C13 0.0206(12) 0.0210(12) 0.0202(13) -0.0013(10) -0.0011(10) 0.0018(10)
    C14 0.0280(14) 0.0262(13) 0.0196(13) 0.0046(11) 0.0070(10) -0.0057(11)
    N1 0.0238(11) 0.0185(10) 0.0229(11) -0.0027(8) -0.0002(9) -0.0004(9)
_geom_special_details
;
 All esds (except the esd in the dihedral angle between two l.s. planes)
 are estimated using the full covariance matrix.  The cell esds are taken
 into account individually in the estimation of esds in distances, angles
 and torsion angles; correlations between esds in cell parameters are only
 used when they are defined by crystal symmetry.  An approximate (isotropic)
 treatment of cell esds is used for estimating esds involving l.s. planes.
;
loop_
    _geom_bond_atom_site_label_1
    _geom_bond_atom_site_label_2
    _geom_bond_site_symmetry_2
    _geom_bond_distance
    _geom_bond_publ_flag
    Br1 C2 . 1.898(2) y
    C1 C2 . 1.398(3) n
    C1 C6 . 1.401(3) n
    C1 N1 . 1.407(3) y
    C2 C3 . 1.383(4) n
    C3 C4 . 1.388(4) n
    C3 H3 . 0.95 n
    C4 C5 . 1.382(4) n
    C4 H4 . 0.95 n
    C5 C6 . 1.385(4) n
    C5 H5 . 0.95 n
    C6 H6 . 0.95 n
    C7 C12 . 1.399(3) n
    C7 C8 . 1.408(3) n
    C7 C13 . 1.469(3) y
    C8 C9 . 1.392(4) n
    C8 C14 . 1.547(3) y
    C9 C10 . 1.383(4) n
    C9 H9 . 0.95 n
    C10 C11 . 1.385(4) n
    C10 H10 . 0.95 n
    C11 C12 . 1.377(4) n
    C11 H11 . 0.95 n
    C12 H12 . 0.95 n
    C13 N1 . 1.270(3) y
    C13 H13 . 0.95 n
    C14 H14A . 0.98 n
    C14 H14B . 0.98 n
    C14 H14C . 0.98 n
loop_
    _geom_angle_atom_site_label_1
    _geom_angle_atom_site_label_2
    _geom_angle_atom_site_label_3
    _geom_angle_site_symmetry_1
    _geom_angle_site_symmetry_3
    _geom_angle
    _geom_angle_publ_flag
    C2 C1 C6 . . 116.9(2) n
    C2 C1 N1 . . 120.2(2) n
    C6 C1 N1 . . 122.8(2) n
    C3 C2 C1 . . 122.4(2) n
    C3 C2 Br1 . . 118.14(19) n
    C1 C2 Br1 . . 119.48(18) n
    C2 C3 C4 . . 119.2(2) n
    C2 C3 H3 . . 120 n
    C4 C3 H3 . . 120 n
    C5 C4 C3 . . 120.1(2) n
    C5 C4 H4 . . 120 n
    C3 C4 H4 . . 120 n
    C4 C5 C6 . . 120.1(2) n
    C4 C5 H5 . . 120 n
    C6 C5 H5 . . 120 n
    C5 C6 C1 . . 121.3(2) n
    C5 C6 H6 . . 119 n
    C1 C6 H6 . . 119 n
    C12 C7 C8 . . 119.6(2) n
    C12 C7 C13 . . 119.3(2) n
    C8 C7 C13 . . 121.1(2) n
    C9 C8 C7 . . 118.2(2) n
    C9 C8 C14 . . 119.7(2) n
    C7 C8 C14 . . 122.1(2) n
    C10 C9 C8 . . 121.3(2) n
    C10 C9 H9 . . 119 n
    C8 C9 H9 . . 119 n
    C9 C10 C11 . . 120.6(2) n
    C9 C10 H10 . . 120 n
    C11 C10 H10 . . 120 n
    C12 C11 C10 . . 119.0(2) n
    C12 C11 H11 . . 121 n
    C10 C11 H11 . . 121 n
    C11 C12 C7 . . 121.3(2) n
    C11 C12 H12 . . 119 n
    C7 C12 H12 . . 119 n
    N1 C13 C7 . . 122.5(2) y
    N1 C13 H13 . . 119 n
    C7 C13 H13 . . 119 n
    C8 C14 H14A . . 110 n
    C8 C14 H14B . . 110 n
    H14A C14 H14B . . 110 n
    C8 C14 H14C . . 110 n
    H14A C14 H14C . . 110 n
    H14B C14 H14C . . 110 n
    C13 N1 C1 . . 118.6(2) y
loop_
    _geom_torsion_atom_site_label_1
    _geom_torsion_atom_site_label_2
    _geom_torsion_atom_site_label_3
    _geom_torsion_atom_site_label_4
    _geom_torsion_site_symmetry_1
    _geom_torsion_site_symmetry_2
    _geom_torsion_site_symmetry_3
    _geom_torsion_site_symmetry_4
    _geom_torsion
    _geom_torsion_publ_flag
    C6 C1 C2 C3 . . . . -1.7(3) n
    N1 C1 C2 C3 . . . . -177.1(2) n
    C6 C1 C2 Br1 . . . . 178.79(18) n
    N1 C1 C2 Br1 . . . . 3.4(3) n
    C1 C2 C3 C4 . . . . 1.4(4) n
    Br1 C2 C3 C4 . . . . -179.09(19) n
    C2 C3 C4 C5 . . . . -0.6(4) n
    C3 C4 C5 C6 . . . . 0.1(4) n
    C4 C5 C6 C1 . . . . -0.5(4) n
    C2 C1 C6 C5 . . . . 1.2(4) n
    N1 C1 C6 C5 . . . . 176.5(2) n
    C12 C7 C8 C9 . . . . 1.0(3) n
    C13 C7 C8 C9 . . . . -177.6(2) n
    C12 C7 C8 C14 . . . . -179.2(2) n
    C13 C7 C8 C14 . . . . 2.1(3) n
    C7 C8 C9 C10 . . . . -1.2(4) n
    C14 C8 C9 C10 . . . . 179.0(2) n
    C8 C9 C10 C11 . . . . 0.7(4) n
    C9 C10 C11 C12 . . . . 0.1(4) n
    C10 C11 C12 C7 . . . . -0.3(4) n
    C8 C7 C12 C11 . . . . -0.3(4) n
    C13 C7 C12 C11 . . . . 178.4(2) n
    C12 C7 C13 N1 . . . . -6.3(4) y
    C8 C7 C13 N1 . . . . 172.3(2) n
    C7 C13 N1 C1 . . . . -174.6(2) y
    C2 C1 N1 C13 . . . . -144.3(2) n
    C6 C1 N1 C13 . . . . 40.6(3) y
data_VII
_audit_creation_method     SHELXL-97
_journal_date_recd_electronic     2007-01-04
_journal_date_accepted     2007-04-11
_journal_name_full     'Acta Crystallographica, Section B'
_journal_year     2007
_journal_volume     63
_journal_issue      3
_journal_page_first     485
_journal_page_last     496
_journal_paper_category     FA
_journal_coeditor_code     GP5015
_chemical_name_systematic
;
  N-(4-methylbenzylidene)-4-cyanoaniline
;
_chemical_name_common     ?
_chemical_formula_moiety     'C15 H12 N2'
_chemical_formula_sum     'C15 H12 N2'
_chemical_formula_weight     220.27
_chemical_melting_point        .129E-128
_symmetry_cell_setting     monoclinic
_symmetry_space_group_name_H-M     'P 1 21/n 1'
loop_
    _symmetry_equiv_pos_as_xyz
    'x, y, z'
    '-x+1/2, y+1/2, -z+1/2'
    '-x, -y, -z'
    'x-1/2, -y-1/2, z-1/2'
_cell_length_a     6.1535(9)
_cell_length_b     7.1990(10)
_cell_length_c     26.253(4)
_cell_angle_alpha     90.00
_cell_angle_beta     92.285(2)
_cell_angle_gamma     90.00
_cell_volume     1162.1(3)
_cell_formula_units_Z     4
_cell_measurement_reflns_used     2898
_cell_measurement_theta_min     2.934
_cell_measurement_theta_max     25.001
_cell_measurement_temperature     173(2)
_exptl_crystal_description     plate
_exptl_crystal_colour     yellow
_exptl_crystal_size_max     0.50
_exptl_crystal_size_mid     0.48
_exptl_crystal_size_min     0.05
_exptl_crystal_density_diffrn     1.259
_exptl_crystal_density_meas     ?
_exptl_crystal_density_method     'not measured'
_exptl_crystal_F_000     464
_exptl_absorpt_coefficient_mu     0.075
_exptl_absorpt_correction_type     multi-scan
_exptl_absorpt_process_details     'SADABS (Blessing, 1995)'
_exptl_absorpt_correction_T_min     0.960
_exptl_absorpt_correction_T_max     0.993
_exptl_special_details
;
 ?
;
_diffrn_ambient_temperature     173(2)
_diffrn_radiation_type     MoK\a
_diffrn_radiation_wavelength     0.71073
_diffrn_radiation_source     'normal-focus sealed tube'
_diffrn_radiation_monochromator     graphite
_diffrn_measurement_device_type     'Siemens SMART Platform CCD'
_diffrn_measurement_method     'area detector, omega scans per phi'
_diffrn_detector_area_resol_mean     ?
_diffrn_reflns_number     10066
_diffrn_reflns_av_R_equivalents     0.0234
_diffrn_reflns_av_sigmaI/netI     0.0166
_diffrn_reflns_theta_min     1.55
_diffrn_reflns_theta_max     25.04
_diffrn_reflns_theta_full     25.04
_diffrn_measured_fraction_theta_max     0.999
_diffrn_measured_fraction_theta_full     0.999
_diffrn_reflns_limit_h_min     -7
_diffrn_reflns_limit_h_max     7
_diffrn_reflns_limit_k_min     -8
_diffrn_reflns_limit_k_max     8
_diffrn_reflns_limit_l_min     -31
_diffrn_reflns_limit_l_max     31
_diffrn_standards_number     ?
_diffrn_standards_interval_count     ?
_diffrn_standards_interval_time     ?
_diffrn_standards_decay_%     ?
_refine_special_details
;
 Refinement of F^2^ against ALL reflections.  The weighted R-factor wR and
 goodness of fit S are based on F^2^, conventional R-factors R are based
 on F, with F set to zero for negative F^2^. The threshold expression of
 F^2^ > 2sigma(F^2^) is used only for calculating R-factors(gt) etc. and is
 not relevant to the choice of reflections for refinement.  R-factors based
 on F^2^ are statistically about twice as large as those based on F, and R-
 factors based on ALL data will be even larger.
 Disordered methyl group.
;
_reflns_number_total     2062
_reflns_number_gt     1727
_reflns_threshold_expression     'I>2\s(I)'
_refine_ls_structure_factor_coef     Fsqd
_refine_ls_matrix_type     full
_refine_ls_R_factor_all     0.0467
_refine_ls_R_factor_gt     0.0369
_refine_ls_wR_factor_gt     0.0884
_refine_ls_wR_factor_ref     0.0931
_refine_ls_goodness_of_fit_ref     1.062
_refine_ls_restrained_S_all     1.062
_refine_ls_number_reflns     2062
_refine_ls_number_parameters     155
_refine_ls_number_restraints     0
_refine_ls_hydrogen_treatment     constr
_refine_ls_weighting_scheme     calc
_refine_ls_weighting_details
         'calc w=1/[\s^2^(Fo^2^)+(0.0412P)^2^+0.2659P] where P=(Fo^2^+2Fc^2^)/3'
_atom_sites_solution_hydrogens     geom
_atom_sites_solution_primary     direct
_atom_sites_solution_secondary     difmap
_refine_ls_shift/su_max     0.000
_refine_ls_shift/su_mean     0.000
_refine_diff_density_max     0.112
_refine_diff_density_min     -0.144
_refine_ls_extinction_method     none
_refine_ls_extinction_coef     ?
loop_
    _atom_type_symbol
    _atom_type_description
    _atom_type_scat_dispersion_real
    _atom_type_scat_dispersion_imag
    _atom_type_scat_source
    'C' 'C' 0.0033 0.0016
                         'International Tables Vol C Tables 4.2.6.8 and 6.1.1.4'
    'H' 'H' 0.0000 0.0000
                         'International Tables Vol C Tables 4.2.6.8 and 6.1.1.4'
    'N' 'N' 0.0061 0.0033
                         'International Tables Vol C Tables 4.2.6.8 and 6.1.1.4'
_computing_data_collection     'SMART, Bruker'
_computing_cell_refinement     'SAINT, Bruker'
_computing_data_reduction     'SAINT, Bruker'
_computing_structure_solution     'SHELXS-97 (Sheldrick, 1990)'
_computing_structure_refinement     'SHELXL-97 (Sheldrick, 1997)'
_computing_molecular_graphics     'PLATON (Spek, 2003)'
_computing_publication_material     'SHELXL97 (Sheldrick, 1997)'
loop_
    _atom_site_type_symbol
    _atom_site_label
    _atom_site_fract_x
    _atom_site_fract_y
    _atom_site_fract_z
    _atom_site_U_iso_or_equiv
    _atom_site_adp_type
    _atom_site_calc_flag
    _atom_site_refinement_flags
    _atom_site_occupancy
    _atom_site_disorder_assembly
    _atom_site_disorder_group
    C C1 0.12634(19) 0.62561(17) 0.23721(5) 0.0300(3) Uani d . 1 . .
    C C2 0.2057(2) 0.66676(17) 0.28623(5) 0.0329(3) Uani d . 1 . .
    H H2 0.3488 0.7149 0.2911 0.039 Uiso calc R 1 . .
    C C3 0.0798(2) 0.63883(18) 0.32804(5) 0.0359(3) Uani d . 1 . .
    H H3 0.1376 0.6677 0.3612 0.043 Uiso calc R 1 . .
    C C4 -0.1307(2) 0.56890(17) 0.32214(5) 0.0343(3) Uani d . 1 . .
    C C5 -0.20890(19) 0.52425(18) 0.27303(5) 0.0348(3) Uani d . 1 . .
    H H5 -0.3510 0.4740 0.2682 0.042 Uiso calc R 1 . .
    C C6 -0.0833(2) 0.55182(18) 0.23131(5) 0.0338(3) Uani d . 1 . .
    H H6 -0.1398 0.5203 0.1982 0.041 Uiso calc R 1 . .
    C C7 0.3380(2) 0.65482(18) 0.10791(5) 0.0329(3) Uani d . 1 . .
    C C8 0.2723(2) 0.75943(18) 0.06526(5) 0.0362(3) Uani d . 1 . .
    H H8 0.1328 0.8163 0.0638 0.043 Uiso calc R 1 . .
    C C9 0.4086(2) 0.78061(19) 0.02530(5) 0.0365(3) Uani d . 1 . .
    H H9 0.3631 0.8520 -0.0036 0.044 Uiso calc R 1 . .
    C C10 0.6139(2) 0.69711(18) 0.02730(5) 0.0336(3) Uani d . 1 . .
    C C11 0.6790(2) 0.58880(18) 0.06915(5) 0.0352(3) Uani d . 1 . .
    H H11 0.8171 0.5296 0.0703 0.042 Uiso calc R 1 . .
    C C12 0.5412(2) 0.56824(18) 0.10896(5) 0.0348(3) Uani d . 1 . .
    H H12 0.5851 0.4941 0.1375 0.042 Uiso calc R 1 . .
    C C13 0.2619(2) 0.65643(17) 0.19341(5) 0.0325(3) Uani d . 1 . .
    H H13 0.4080 0.6960 0.1994 0.039 Uiso calc R 1 . .
    C C14 -0.2709(2) 0.5429(2) 0.36732(5) 0.0479(4) Uani d . 1 . .
    H H14A -0.1785 0.5165 0.3977 0.072 Uiso calc PR 0.794(18) . .
    H H14B -0.3709 0.4388 0.3608 0.072 Uiso calc PR 0.794(18) . .
    H H14C -0.3546 0.6565 0.3728 0.072 Uiso calc PR 0.794(18) . .
    H H14D -0.4242 0.5580 0.3565 0.072 Uiso calc PR 0.206(18) . .
    H H14E -0.2318 0.6357 0.3934 0.072 Uiso calc PR 0.206(18) . .
    H H14F -0.2481 0.4181 0.3814 0.072 Uiso calc PR 0.206(18) . .
    C C15 0.7588(2) 0.7234(2) -0.01390(5) 0.0388(3) Uani d . 1 . .
    N N1 0.19196(17) 0.63233(16) 0.14759(4) 0.0363(3) Uani d . 1 . .
    N N2 0.8756(2) 0.74750(19) -0.04616(5) 0.0532(4) Uani d . 1 . .
loop_
    _atom_site_aniso_label
    _atom_site_aniso_U_11
    _atom_site_aniso_U_22
    _atom_site_aniso_U_33
    _atom_site_aniso_U_12
    _atom_site_aniso_U_13
    _atom_site_aniso_U_23
    C1 0.0295(6) 0.0269(6) 0.0338(7) 0.0034(5) 0.0038(5) 0.0021(5)
    C2 0.0305(7) 0.0304(7) 0.0378(7) -0.0006(5) 0.0024(5) -0.0021(5)
    C3 0.0405(7) 0.0361(7) 0.0314(7) 0.0040(6) 0.0024(6) -0.0029(6)
    C4 0.0362(7) 0.0297(7) 0.0376(7) 0.0073(5) 0.0081(6) 0.0041(5)
    C5 0.0278(6) 0.0336(7) 0.0434(7) 0.0009(5) 0.0046(6) 0.0029(6)
    C6 0.0322(7) 0.0361(7) 0.0331(7) 0.0022(5) -0.0006(5) 0.0001(5)
    C7 0.0305(6) 0.0373(7) 0.0308(7) -0.0063(5) 0.0020(5) 0.0002(5)
    C8 0.0309(6) 0.0421(8) 0.0357(7) 0.0014(6) 0.0013(5) 0.0024(6)
    C9 0.0388(7) 0.0398(7) 0.0308(7) -0.0028(6) -0.0004(6) 0.0036(6)
    C10 0.0355(7) 0.0356(7) 0.0300(7) -0.0049(5) 0.0044(5) -0.0030(5)
    C11 0.0313(7) 0.0377(7) 0.0365(7) -0.0004(5) 0.0018(5) -0.0010(6)
    C12 0.0335(7) 0.0385(7) 0.0323(7) -0.0025(6) -0.0013(5) 0.0046(6)
    C13 0.0290(6) 0.0318(7) 0.0369(7) -0.0005(5) 0.0026(5) 0.0021(5)
    C14 0.0473(8) 0.0547(9) 0.0426(8) 0.0062(7) 0.0144(7) 0.0076(7)
    C15 0.0399(7) 0.0428(8) 0.0338(7) -0.0007(6) 0.0032(6) -0.0003(6)
    N1 0.0326(6) 0.0433(6) 0.0331(6) -0.0015(5) 0.0039(5) 0.0041(5)
    N2 0.0504(7) 0.0674(9) 0.0427(7) 0.0017(6) 0.0132(6) 0.0057(6)
_geom_special_details
;
 All esds (except the esd in the dihedral angle between two l.s. planes)
 are estimated using the full covariance matrix.  The cell esds are taken
 into account individually in the estimation of esds in distances, angles
 and torsion angles; correlations between esds in cell parameters are only
 used when they are defined by crystal symmetry.  An approximate (isotropic)
 treatment of cell esds is used for estimating esds involving l.s. planes.
;
loop_
    _geom_bond_atom_site_label_1
    _geom_bond_atom_site_label_2
    _geom_bond_site_symmetry_2
    _geom_bond_distance
    _geom_bond_publ_flag
    C1 C2 . 1.3898(17) n
    C1 C6 . 1.3979(17) n
    C1 C13 . 1.4644(17) y
    C2 C3 . 1.3834(17) n
    C2 H2 . 0.95 n
    C3 C4 . 1.3923(18) n
    C3 H3 . 0.95 n
    C4 C5 . 1.3956(19) n
    C4 C14 . 1.5061(17) y
    C5 C6 . 1.3798(17) n
    C5 H5 . 0.95 n
    C6 H6 . 0.95 n
    C7 C8 . 1.3959(18) n
    C7 C12 . 1.3961(18) n
    C7 N1 . 1.4120(15) y
    C8 C9 . 1.3775(17) n
    C8 H8 . 0.95 n
    C9 C10 . 1.3982(18) n
    C9 H9 . 0.95 n
    C10 C11 . 1.3931(18) n
    C10 C15 . 1.4413(17) y
    C11 C12 . 1.3801(17) n
    C11 H11 . 0.95 n
    C12 H12 . 0.95 n
    C13 N1 . 1.2734(16) y
    C13 H13 . 0.95 n
    C14 H14A . 0.98 n
    C14 H14B . 0.98 n
    C14 H14C . 0.98 n
    C14 H14D . 0.98 n
    C14 H14E . 0.98 n
    C14 H14F . 0.98 n
    C15 N2 . 1.1458(16) y
loop_
    _geom_angle_atom_site_label_1
    _geom_angle_atom_site_label_2
    _geom_angle_atom_site_label_3
    _geom_angle_site_symmetry_1
    _geom_angle_site_symmetry_3
    _geom_angle
    _geom_angle_publ_flag
    C2 C1 C6 . . 118.18(11) n
    C2 C1 C13 . . 120.30(11) n
    C6 C1 C13 . . 121.51(11) n
    C3 C2 C1 . . 121.09(12) n
    C3 C2 H2 . . 120 n
    C1 C2 H2 . . 120 n
    C2 C3 C4 . . 120.81(12) n
    C2 C3 H3 . . 120 n
    C4 C3 H3 . . 120 n
    C3 C4 C5 . . 118.10(11) n
    C3 C4 C14 . . 121.12(12) n
    C5 C4 C14 . . 120.78(12) n
    C6 C5 C4 . . 121.11(12) n
    C6 C5 H5 . . 119 n
    C4 C5 H5 . . 119 n
    C5 C6 C1 . . 120.69(12) n
    C5 C6 H6 . . 120 n
    C1 C6 H6 . . 120 n
    C8 C7 C12 . . 119.17(11) n
    C8 C7 N1 . . 118.74(11) n
    C12 C7 N1 . . 122.00(11) n
    C9 C8 C7 . . 120.31(12) n
    C9 C8 H8 . . 120 n
    C7 C8 H8 . . 120 n
    C8 C9 C10 . . 120.04(12) n
    C8 C9 H9 . . 120 n
    C10 C9 H9 . . 120 n
    C11 C10 C9 . . 120.10(11) n
    C11 C10 C15 . . 119.89(12) n
    C9 C10 C15 . . 120.02(12) n
    C12 C11 C10 . . 119.41(12) n
    C12 C11 H11 . . 120 n
    C10 C11 H11 . . 120 n
    C11 C12 C7 . . 120.94(12) n
    C11 C12 H12 . . 120 n
    C7 C12 H12 . . 120 n
    N1 C13 C1 . . 122.65(12) y
    N1 C13 H13 . . 119 n
    C1 C13 H13 . . 119 n
    C4 C14 H14A . . 110 n
    C4 C14 H14B . . 110 n
    H14A C14 H14B . . 110 n
    C4 C14 H14C . . 110 n
    H14A C14 H14C . . 110 n
    H14B C14 H14C . . 110 n
    C4 C14 H14D . . 110 n
    C4 C14 H14E . . 110 n
    H14D C14 H14E . . 110 n
    C4 C14 H14F . . 110 n
    H14D C14 H14F . . 110 n
    H14E C14 H14F . . 110 n
    N2 C15 C10 . . 178.60(15) y
    C13 N1 C7 . . 118.69(11) y
loop_
    _geom_torsion_atom_site_label_1
    _geom_torsion_atom_site_label_2
    _geom_torsion_atom_site_label_3
    _geom_torsion_atom_site_label_4
    _geom_torsion_site_symmetry_1
    _geom_torsion_site_symmetry_2
    _geom_torsion_site_symmetry_3
    _geom_torsion_site_symmetry_4
    _geom_torsion
    _geom_torsion_publ_flag
    C6 C1 C2 C3 . . . . -1.15(18) n
    C13 C1 C2 C3 . . . . 179.89(11) n
    C1 C2 C3 C4 . . . . -0.14(19) n
    C2 C3 C4 C5 . . . . 1.34(18) n
    C2 C3 C4 C14 . . . . -178.35(12) n
    C3 C4 C5 C6 . . . . -1.25(18) n
    C14 C4 C5 C6 . . . . 178.44(12) n
    C4 C5 C6 C1 . . . . -0.04(19) n
    C2 C1 C6 C5 . . . . 1.24(18) n
    C13 C1 C6 C5 . . . . -179.81(11) n
    C12 C7 C8 C9 . . . . -1.60(19) n
    N1 C7 C8 C9 . . . . -178.47(12) n
    C7 C8 C9 C10 . . . . 0.0(2) n
    C8 C9 C10 C11 . . . . 1.49(19) n
    C8 C9 C10 C15 . . . . -178.33(12) n
    C9 C10 C11 C12 . . . . -1.40(19) n
    C15 C10 C11 C12 . . . . 178.42(12) n
    C10 C11 C12 C7 . . . . -0.20(19) n
    C8 C7 C12 C11 . . . . 1.70(19) n
    N1 C7 C12 C11 . . . . 178.45(12) n
    C2 C1 C13 N1 . . . . -175.35(12) n
    C6 C1 C13 N1 . . . . 5.73(19) y
    C1 C13 N1 C7 . . . . -176.31(11) y
    C8 C7 N1 C13 . . . . -133.53(13) n
    C12 C7 N1 C13 . . . . 49.70(17) y
data_VIII
_audit_creation_method     SHELXL-97
_journal_date_recd_electronic     2007-01-04
_journal_date_accepted     2007-04-11
_journal_name_full     'Acta Crystallographica, Section B'
_journal_year     2007
_journal_volume     63
_journal_issue      3
_journal_page_first     485
_journal_page_last     496
_journal_paper_category     FA
_journal_coeditor_code     GP5015
_chemical_name_systematic
;
 N-(4-cyanobenzylidene)-4-methylaniline
;
_chemical_name_common     ?
_chemical_formula_moiety     'C15 H12 N2'
_chemical_formula_sum     'C15 H12 N2'
_chemical_formula_weight     220.27
_chemical_melting_point        .144E-143
_symmetry_cell_setting     monoclinic
_symmetry_space_group_name_H-M     'P 1 21/n 1'
loop_
    _symmetry_equiv_pos_as_xyz
    'x, y, z'
    '-x+1/2, y+1/2, -z+1/2'
    '-x, -y, -z'
    'x-1/2, -y-1/2, z-1/2'
_cell_length_a     6.1878(12)
_cell_length_b     7.3785(15)
_cell_length_c     25.895(5)
_cell_angle_alpha     90.00
_cell_angle_beta     94.635(3)
_cell_angle_gamma     90.00
_cell_volume     1178.4(4)
_cell_formula_units_Z     4
_cell_measurement_reflns_used     2582
_cell_measurement_theta_min     2.871
_cell_measurement_theta_max     27.463
_cell_measurement_temperature     173(2)
_exptl_crystal_description     prism
_exptl_crystal_colour     yellow
_exptl_crystal_size_max     0.43
_exptl_crystal_size_mid     0.30
_exptl_crystal_size_min     0.30
_exptl_crystal_density_diffrn     1.242
_exptl_crystal_density_meas     ?
_exptl_crystal_density_method     'not measured'
_exptl_crystal_F_000     464
_exptl_absorpt_coefficient_mu     0.074
_exptl_absorpt_correction_type     multi-scan
_exptl_absorpt_process_details     'SADABS (Blessing, 1995)'
_exptl_absorpt_correction_T_min     0.971
_exptl_absorpt_correction_T_max     0.975
_exptl_special_details
;
 ?
;
_diffrn_ambient_temperature     173(2)
_diffrn_radiation_type     MoK\a
_diffrn_radiation_wavelength     0.71073
_diffrn_radiation_source     'normal-focus sealed tube'
_diffrn_radiation_monochromator     graphite
_diffrn_measurement_device_type     'Siemens SMART Platform CCD'
_diffrn_measurement_method     'area detector, omega scans per phi'
_diffrn_detector_area_resol_mean     ?
_diffrn_reflns_number     2677
_diffrn_reflns_av_R_equivalents     0.0000
_diffrn_reflns_av_sigmaI/netI     0.0251
_diffrn_reflns_theta_min     1.58
_diffrn_reflns_theta_max     27.62
_diffrn_reflns_theta_full     27.62
_diffrn_measured_fraction_theta_max     0.978
_diffrn_measured_fraction_theta_full     0.978
_diffrn_reflns_limit_h_min     -7
_diffrn_reflns_limit_h_max     7
_diffrn_reflns_limit_k_min     0
_diffrn_reflns_limit_k_max     9
_diffrn_reflns_limit_l_min     0
_diffrn_reflns_limit_l_max     33
_diffrn_standards_number     ?
_diffrn_standards_interval_count     ?
_diffrn_standards_interval_time     ?
_diffrn_standards_decay_%     ?
_refine_special_details
;
 Refinement of F^2^ against ALL reflections.  The weighted R-factor wR and
 goodness of fit S are based on F^2^, conventional R-factors R are based
 on F, with F set to zero for negative F^2^. The threshold expression of
 F^2^ > 2sigma(F^2^) is used only for calculating R-factors(gt) etc. and is
 not relevant to the choice of reflections for refinement.  R-factors based
 on F^2^ are statistically about twice as large as those based on F, and R-
 factors based on ALL data will be even larger.
;
_reflns_number_total     2677
_reflns_number_gt     2218
_reflns_threshold_expression     'I>2\s(I)'
_refine_ls_structure_factor_coef     Fsqd
_refine_ls_matrix_type     full
_refine_ls_R_factor_all     0.0766
_refine_ls_R_factor_gt     0.0649
_refine_ls_wR_factor_gt     0.1781
_refine_ls_wR_factor_ref     0.1861
_refine_ls_goodness_of_fit_ref     1.074
_refine_ls_restrained_S_all     1.074
_refine_ls_number_reflns     2677
_refine_ls_number_parameters     155
_refine_ls_number_restraints     0
_refine_ls_hydrogen_treatment     constr
_refine_ls_weighting_scheme     calc
_refine_ls_weighting_details
         'calc w=1/[\s^2^(Fo^2^)+(0.0910P)^2^+0.6802P] where P=(Fo^2^+2Fc^2^)/3'
_atom_sites_solution_hydrogens     geom
_atom_sites_solution_primary     direct
_atom_sites_solution_secondary     difmap
_refine_ls_shift/su_max     0.013
_refine_ls_shift/su_mean     0.000
_refine_diff_density_max     0.314
_refine_diff_density_min     -0.262
_refine_ls_extinction_method     none
_refine_ls_extinction_coef     ?
loop_
    _atom_type_symbol
    _atom_type_description
    _atom_type_scat_dispersion_real
    _atom_type_scat_dispersion_imag
    _atom_type_scat_source
    'C' 'C' 0.0033 0.0016
                         'International Tables Vol C Tables 4.2.6.8 and 6.1.1.4'
    'H' 'H' 0.0000 0.0000
                         'International Tables Vol C Tables 4.2.6.8 and 6.1.1.4'
    'N' 'N' 0.0061 0.0033
                         'International Tables Vol C Tables 4.2.6.8 and 6.1.1.4'
_computing_data_collection     'SMART, Bruker'
_computing_cell_refinement     'SAINT, Bruker'
_computing_data_reduction     'SAINT, Bruker'
_computing_structure_solution     'SHELXS-97 (Sheldrick, 1990)'
_computing_structure_refinement     'SHELXL-97 (Sheldrick, 1997)'
_computing_molecular_graphics     'PLATON (Spek, 2003)'
_computing_publication_material     'SHELXL97 (Sheldrick, 1997)'
loop_
    _atom_site_type_symbol
    _atom_site_label
    _atom_site_fract_x
    _atom_site_fract_y
    _atom_site_fract_z
    _atom_site_U_iso_or_equiv
    _atom_site_adp_type
    _atom_site_calc_flag
    _atom_site_refinement_flags
    _atom_site_occupancy
    _atom_site_disorder_assembly
    _atom_site_disorder_group
    C C1 0.0972(3) 0.6698(2) 0.20117(7) 0.0290(4) Uani d . 1 . .
    C C2 0.0085(3) 0.7243(2) 0.15264(7) 0.0333(4) Uani d . 1 . .
    H H2 -0.1316 0.7778 0.1493 0.040 Uiso calc R 1 . .
    C C3 0.1214(3) 0.7018(3) 0.10901(7) 0.0357(4) Uani d . 1 . .
    H H3 0.0562 0.7369 0.0761 0.043 Uiso calc R 1 . .
    C C4 0.3292(3) 0.6284(2) 0.11289(8) 0.0352(4) Uani d . 1 . .
    C C5 0.4204(3) 0.5802(2) 0.16193(8) 0.0363(4) Uani d . 1 . .
    H H5 0.5640 0.5336 0.1655 0.044 Uiso calc R 1 . .
    C C6 0.3069(3) 0.5985(2) 0.20561(7) 0.0326(4) Uani d . 1 . .
    H H6 0.3717 0.5626 0.2385 0.039 Uiso calc R 1 . .
    C C7 -0.1337(3) 0.6358(2) 0.32840(7) 0.0294(4) Uani d . 1 . .
    C C8 -0.0674(3) 0.5683(2) 0.37745(7) 0.0330(4) Uani d . 1 . .
    H H8 0.0685 0.5087 0.3830 0.040 Uiso calc R 1 . .
    C C9 -0.1977(3) 0.5874(3) 0.41809(7) 0.0351(4) Uani d . 1 . .
    H H9 -0.1513 0.5419 0.4515 0.042 Uiso calc R 1 . .
    C C10 -0.3973(3) 0.6739(2) 0.40960(7) 0.0318(4) Uani d . 1 . .
    C C11 -0.4645(3) 0.7441(2) 0.36070(7) 0.0320(4) Uani d . 1 . .
    H H11 -0.6003 0.8040 0.3552 0.038 Uiso calc R 1 . .
    C C12 -0.3328(3) 0.7259(2) 0.32065(7) 0.0307(4) Uani d . 1 . .
    H H12 -0.3773 0.7747 0.2875 0.037 Uiso calc R 1 . .
    C C13 0.0051(3) 0.6113(2) 0.28558(7) 0.0315(4) Uani d . 1 . .
    H H13 0.1271 0.5330 0.2899 0.038 Uiso calc R 1 . .
    C C14 0.4529(4) 0.6017(3) 0.06553(9) 0.0494(6) Uani d . 1 . .
    H H14C 0.4060 0.4888 0.0481 0.074 Uiso calc R 1 . .
    H H14B 0.6085 0.5952 0.0760 0.074 Uiso calc R 1 . .
    H H14A 0.4245 0.7038 0.0417 0.074 Uiso calc R 1 . .
    C C15 -0.5399(3) 0.6877(3) 0.45064(7) 0.0385(5) Uani d . 1 . .
    N N1 -0.0358(2) 0.6935(2) 0.24277(6) 0.0316(4) Uani d . 1 . .
    N N2 -0.6566(3) 0.6967(3) 0.48255(7) 0.0553(6) Uani d . 1 . .
loop_
    _atom_site_aniso_label
    _atom_site_aniso_U_11
    _atom_site_aniso_U_22
    _atom_site_aniso_U_33
    _atom_site_aniso_U_12
    _atom_site_aniso_U_13
    _atom_site_aniso_U_23
    C1 0.0317(9) 0.0187(8) 0.0367(9) -0.0020(6) 0.0041(7) -0.0016(6)
    C2 0.0327(9) 0.0267(9) 0.0407(10) 0.0029(7) 0.0037(7) 0.0046(7)
    C3 0.0398(10) 0.0309(9) 0.0365(9) -0.0025(8) 0.0043(8) 0.0050(7)
    C4 0.0382(10) 0.0234(8) 0.0455(10) -0.0076(7) 0.0128(8) -0.0023(7)
    C5 0.0311(9) 0.0240(8) 0.0544(11) -0.0006(7) 0.0083(8) -0.0004(8)
    C6 0.0330(9) 0.0230(8) 0.0411(10) -0.0023(7) -0.0008(7) 0.0002(7)
    C7 0.0357(9) 0.0184(7) 0.0340(9) -0.0024(7) 0.0022(7) -0.0011(6)
    C8 0.0343(9) 0.0255(8) 0.0388(9) 0.0037(7) 0.0002(7) 0.0017(7)
    C9 0.0418(10) 0.0302(9) 0.0323(9) 0.0023(8) -0.0022(7) 0.0035(7)
    C10 0.0373(9) 0.0253(8) 0.0326(9) -0.0004(7) 0.0022(7) -0.0031(7)
    C11 0.0342(9) 0.0249(8) 0.0363(9) 0.0032(7) -0.0002(7) -0.0003(7)
    C12 0.0372(9) 0.0228(8) 0.0315(8) 0.0006(7) -0.0013(7) 0.0024(6)
    C13 0.0347(9) 0.0211(8) 0.0388(9) 0.0011(7) 0.0040(7) -0.0003(7)
    C14 0.0546(13) 0.0429(12) 0.0537(13) -0.0070(10) 0.0233(10) -0.0040(10)
    C15 0.0434(11) 0.0369(10) 0.0348(9) 0.0075(8) 0.0011(8) 0.0018(8)
    N1 0.0357(8) 0.0253(7) 0.0336(8) -0.0007(6) 0.0029(6) -0.0015(6)
    N2 0.0611(12) 0.0659(13) 0.0401(10) 0.0195(10) 0.0124(9) 0.0071(9)
_geom_special_details
;
 All esds (except the esd in the dihedral angle between two l.s. planes)
 are estimated using the full covariance matrix.  The cell esds are taken
 into account individually in the estimation of esds in distances, angles
 and torsion angles; correlations between esds in cell parameters are only
 used when they are defined by crystal symmetry.  An approximate (isotropic)
 treatment of cell esds is used for estimating esds involving l.s. planes.
;
loop_
    _geom_bond_atom_site_label_1
    _geom_bond_atom_site_label_2
    _geom_bond_site_symmetry_2
    _geom_bond_distance
    _geom_bond_publ_flag
    C1 C2 . 1.390(3) n
    C1 C6 . 1.396(3) n
    C1 N1 . 1.418(2) y
    C2 C3 . 1.386(3) n
    C2 H2 . 0.95 n
    C3 C4 . 1.391(3) n
    C3 H3 . 0.95 n
    C4 C5 . 1.394(3) n
    C4 C14 . 1.510(3) y
    C5 C6 . 1.385(3) n
    C5 H5 . 0.95 n
    C6 H6 . 0.95 n
    C7 C8 . 1.395(2) n
    C7 C12 . 1.400(3) n
    C7 C13 . 1.468(2) y
    C8 C9 . 1.383(3) n
    C8 H8 . 0.95 n
    C9 C10 . 1.392(3) n
    C9 H9 . 0.95 n
    C10 C11 . 1.400(3) n
    C10 C15 . 1.439(3) y
    C11 C12 . 1.376(2) n
    C11 H11 . 0.95 n
    C12 H12 . 0.95 n
    C13 N1 . 1.271(2) y
    C13 H13 . 0.95 n
    C14 H14C . 0.98 n
    C14 H14B . 0.98 n
    C14 H14A . 0.98 n
    C15 N2 . 1.142(3) y
loop_
    _geom_angle_atom_site_label_1
    _geom_angle_atom_site_label_2
    _geom_angle_atom_site_label_3
    _geom_angle_site_symmetry_1
    _geom_angle_site_symmetry_3
    _geom_angle
    _geom_angle_publ_flag
    C2 C1 C6 . . 118.69(16) n
    C2 C1 N1 . . 116.11(15) n
    C6 C1 N1 . . 125.20(16) n
    C3 C2 C1 . . 120.95(17) n
    C3 C2 H2 . . 120 n
    C1 C2 H2 . . 120 n
    C2 C3 C4 . . 120.79(17) n
    C2 C3 H3 . . 120 n
    C4 C3 H3 . . 120 n
    C3 C4 C5 . . 117.96(17) n
    C3 C4 C14 . . 121.22(18) n
    C5 C4 C14 . . 120.81(18) n
    C6 C5 C4 . . 121.63(17) n
    C6 C5 H5 . . 119 n
    C4 C5 H5 . . 119 n
    C5 C6 C1 . . 119.92(17) n
    C5 C6 H6 . . 120 n
    C1 C6 H6 . . 120 n
    C8 C7 C12 . . 119.38(16) n
    C8 C7 C13 . . 119.81(16) n
    C12 C7 C13 . . 120.81(16) n
    C9 C8 C7 . . 120.66(16) n
    C9 C8 H8 . . 120 n
    C7 C8 H8 . . 120 n
    C8 C9 C10 . . 119.39(16) n
    C8 C9 H9 . . 120 n
    C10 C9 H9 . . 120 n
    C9 C10 C11 . . 120.49(17) n
    C9 C10 C15 . . 120.35(16) n
    C11 C10 C15 . . 119.14(16) n
    C12 C11 C10 . . 119.67(16) n
    C12 C11 H11 . . 120 n
    C10 C11 H11 . . 120 n
    C11 C12 C7 . . 120.40(16) n
    C11 C12 H12 . . 120 n
    C7 C12 H12 . . 120 n
    N1 C13 C7 . . 120.84(16) y
    N1 C13 H13 . . 120 n
    C7 C13 H13 . . 120 n
    C4 C14 H14C . . 110 n
    C4 C14 H14B . . 110 n
    H14C C14 H14B . . 110 n
    C4 C14 H14A . . 110 n
    H14C C14 H14A . . 110 n
    H14B C14 H14A . . 110 n
    N2 C15 C10 . . 178.5(2) y
    C13 N1 C1 . . 121.12(16) y
loop_
    _geom_torsion_atom_site_label_1
    _geom_torsion_atom_site_label_2
    _geom_torsion_atom_site_label_3
    _geom_torsion_atom_site_label_4
    _geom_torsion_site_symmetry_1
    _geom_torsion_site_symmetry_2
    _geom_torsion_site_symmetry_3
    _geom_torsion_site_symmetry_4
    _geom_torsion
    _geom_torsion_publ_flag
    C6 C1 C2 C3 . . . . 2.7(3) n
    N1 C1 C2 C3 . . . . -177.86(15) n
    C1 C2 C3 C4 . . . . -1.8(3) n
    C2 C3 C4 C5 . . . . -0.6(3) n
    C2 C3 C4 C14 . . . . 179.43(17) n
    C3 C4 C5 C6 . . . . 2.1(3) n
    C14 C4 C5 C6 . . . . -177.99(17) n
    C4 C5 C6 C1 . . . . -1.1(3) n
    C2 C1 C6 C5 . . . . -1.2(3) n
    N1 C1 C6 C5 . . . . 179.34(15) n
    C12 C7 C8 C9 . . . . 0.9(3) n
    C13 C7 C8 C9 . . . . -178.90(16) n
    C7 C8 C9 C10 . . . . 0.4(3) n
    C8 C9 C10 C11 . . . . -1.2(3) n
    C8 C9 C10 C15 . . . . 177.05(17) n
    C9 C10 C11 C12 . . . . 0.6(3) n
    C15 C10 C11 C12 . . . . -177.66(16) n
    C10 C11 C12 C7 . . . . 0.7(3) n
    C8 C7 C12 C11 . . . . -1.5(3) n
    C13 C7 C12 C11 . . . . 178.30(15) n
    C8 C7 C13 N1 . . . . -169.70(17) n
    C12 C7 C13 N1 . . . . 10.5(3) y
    C7 C13 N1 C1 . . . . -179.73(15) y
    C2 C1 N1 C13 . . . . 163.14(17) n
    C6 C1 N1 C13 . . . . -17.4(3) y
data_New_Global_Publ_Block
_journal_date_recd_electronic     2007-01-04
_journal_date_accepted     2007-04-11
_journal_name_full     'Acta Crystallographica, Section B'
_journal_year     2007
_journal_volume     63
_journal_issue      3
_journal_page_first     485
_journal_page_last     496
_journal_paper_category     FA
_journal_coeditor_code     GP5015
_publ_contact_author_name     'William H. Ojala'
_publ_contact_author_address
;
Department of Chemistry
University of St. Thomas
St. Paul, Minnesota   55105   USA
;
_publ_contact_author_email     'whojala@stthomas.edu'
_publ_contact_author_fax     '651-962-5209'
_publ_contact_author_phone     '651-962-5585'
_publ_section_title
;
Isostructuralism among "bridge-flipped" isomeric benzylideneanilines and
phenylhydrazones
;
_publ_section_title_footnote     .
loop_
    _publ_author_name
    _publ_author_footnote
    _publ_author_address
    'Ojala, William H.' .
;
Department of Chemistry, University of St. Thomas, St. Paul, Minnesota   55105
USA
;
    'Smieja, Jonathan M.' .
;
Department of Chemistry, University of St. Thomas, St. Paul, Minnesota   55105
USA
;
    'Spude, Jill M.' .
;
Department of Chemistry, University of St. Thomas, St. Paul, Minnesota   55105
USA
;
    'Arola, Trina M.' .
;
Department of Chemistry, University of St. Thomas, St. Paul, Minnesota   55105
USA
;
    'Kuspa, Marika K.' .
;
Department of Chemistry, University of St. Thomas, St. Paul, Minnesota   55105
USA
;
    'Herrera, Nell' .
;
Department of Chemistry, University of St. Thomas, St. Paul, Minnesota   55105
USA
;
    'Ojala, Charles R.' .
;
Department of Chemistry, Normandale Community College, Bloomington, Minnesota
55431
;
_publ_section_synopsis     .

